<?xml version="1.0" encoding="UTF-8"?>
<!-- generated on 2020-05-22 02:26:24.849923 by randomTrips.py UNKNOWN
  options: -n erlangen.net.xml -r erlangen.rou.xml -e 140 -l
-->
<routes xmlns:xsi="http://www.w3.org/2001/XMLSchema-instance" xsi:noNamespaceSchemaLocation="http://sumo.dlr.de/xsd/routes_file.xsd">
    <trip id="0" depart="0.00" from="24360702#5" to="291081716#0"/>
    <trip id="1" depart="1.00" from="24650041#0" to="24672251#3"/>
    <trip id="2" depart="2.00" from="425195363" to="432145967#3"/>
    <trip id="3" depart="3.00" from="24650040#4" to="385513379"/>
    <trip id="4" depart="4.00" from="24650209" to="302701816#3"/>
    <trip id="5" depart="5.00" from="291263660#1" to="36921441#6"/>
    <trip id="6" depart="6.00" from="31236598" to="415999039"/>
    <trip id="7" depart="7.00" from="24361011#0" to="431751174#1"/>
    <trip id="8" depart="8.00" from="431768087#3" to="431768088#8"/>
    <trip id="9" depart="9.00" from="420397519#0" to="291083098#1"/>
    <trip id="10" depart="10.00" from="425357175#0" to="24611998#2"/>
    <trip id="11" depart="11.00" from="31245585#0" to="431768088#0"/>
    <trip id="12" depart="12.00" from="-24360389" to="24361582"/>
    <trip id="13" depart="13.00" from="425647416#0" to="24360454#2"/>
    <trip id="14" depart="14.00" from="427643916#0" to="24650050#1"/>
    <trip id="15" depart="15.00" from="291263660#1" to="31280190"/>
    <trip id="16" depart="16.00" from="24650041#3" to="37017374#1"/>
    <trip id="17" depart="17.00" from="-531938898" to="-31280190"/>
    <trip id="18" depart="18.00" from="160695140#2" to="35972439#1"/>
    <trip id="19" depart="19.00" from="431976822#1" to="291083104#1"/>
    <trip id="20" depart="20.00" from="173516435" to="24650943#1"/>
    <trip id="21" depart="21.00" from="24361001#0" to="427643916#1"/>
    <trip id="22" depart="22.00" from="24652764#1" to="24650045#0"/>
    <trip id="23" depart="23.00" from="291083102#3" to="128476620#1"/>
    <trip id="24" depart="24.00" from="531955428" to="425426454#0"/>
    <trip id="25" depart="25.00" from="426225162#2" to="24652781#0"/>
    <trip id="26" depart="26.00" from="107938380#0" to="291083102#9"/>
    <trip id="27" depart="27.00" from="427691216#3" to="24650044#2"/>
    <trip id="28" depart="28.00" from="24650053" to="427643915"/>
    <trip id="29" depart="29.00" from="534516110" to="89383700#0"/>
    <trip id="30" depart="30.00" from="420397519#2" to="-531938898"/>
    <trip id="31" depart="31.00" from="540428269" to="24672281"/>
    <trip id="32" depart="32.00" from="534510803#1" to="31528042"/>
    <trip id="33" depart="33.00" from="24672251#4" to="431949567"/>
    <trip id="34" depart="34.00" from="31143623#0" to="426225162#2"/>
    <trip id="35" depart="35.00" from="538952544" to="37017374#1"/>
    <trip id="36" depart="36.00" from="31922086#0" to="415999040#1"/>
    <trip id="37" depart="37.00" from="291083100#0" to="24361582"/>
    <trip id="38" depart="38.00" from="302701026#3" to="409607687#1"/>
    <trip id="39" depart="39.00" from="431762830" to="-24211848#0"/>
    <trip id="40" depart="40.00" from="24650062" to="540428272"/>
    <trip id="41" depart="41.00" from="173516435" to="427636275#0"/>
    <trip id="42" depart="42.00" from="427129776" to="36921441#1"/>
    <trip id="43" depart="43.00" from="432805066" to="24681474"/>
    <trip id="44" depart="44.00" from="426361938" to="422264046#5"/>
    <trip id="45" depart="45.00" from="160695432#0" to="291083098#2"/>
    <trip id="46" depart="46.00" from="534516113" to="-652135081"/>
    <trip id="47" depart="47.00" from="24652765#0" to="128476620#1"/>
    <trip id="48" depart="48.00" from="24652222" to="24611808#1"/>
    <trip id="49" depart="49.00" from="539419561#1" to="24360576"/>
    <trip id="50" depart="50.00" from="-652135081" to="425382683#0"/>
    <trip id="51" depart="51.00" from="-128476620#1" to="424184690#1"/>
    <trip id="52" depart="52.00" from="24360707#3" to="424804974#1"/>
    <trip id="53" depart="53.00" from="424184690#0" to="531939266"/>
    <trip id="54" depart="54.00" from="150166749#0" to="24212326#2"/>
    <trip id="55" depart="55.00" from="427888491#0" to="415999043#1"/>
    <trip id="56" depart="56.00" from="247705006" to="24611824#0"/>
    <trip id="57" depart="57.00" from="-24360389" to="425369970#2"/>
    <trip id="58" depart="58.00" from="31018706" to="409607687#1"/>
    <trip id="59" depart="59.00" from="24650044#2" to="432145967#3"/>
    <trip id="60" depart="60.00" from="531937184" to="-24211848#2"/>
    <trip id="61" depart="61.00" from="667191401#2" to="24650045#1"/>
    <trip id="62" depart="62.00" from="24361400#1" to="238009794#3"/>
    <trip id="63" depart="63.00" from="-427692678#1" to="421616332#2"/>
    <trip id="64" depart="64.00" from="370241718#1" to="532138883"/>
    <trip id="65" depart="65.00" from="531935299" to="24650040#2"/>
    <trip id="66" depart="66.00" from="667195599#1" to="36921441#0"/>
    <trip id="67" depart="67.00" from="425426453#2" to="-24611999#2"/>
    <trip id="68" depart="68.00" from="24617779#1" to="531952880"/>
    <trip id="69" depart="69.00" from="308669837#1" to="128476488#1"/>
    <trip id="70" depart="70.00" from="24672251#3" to="150166760"/>
    <trip id="71" depart="71.00" from="711394777" to="50502913#1"/>
    <trip id="72" depart="72.00" from="532184444" to="531939266"/>
    <trip id="73" depart="73.00" from="31245585#0" to="24360220#1"/>
    <trip id="74" depart="74.00" from="420385374#1" to="427691216#0"/>
    <trip id="75" depart="75.00" from="24360386#3" to="-24211848#3"/>
    <trip id="76" depart="76.00" from="24360702#0" to="421924785"/>
    <trip id="77" depart="77.00" from="24611999#1" to="24672316#3"/>
    <trip id="78" depart="78.00" from="291081716#0" to="199287420#1"/>
    <trip id="79" depart="79.00" from="-24612002#1" to="24360386#0"/>
    <trip id="80" depart="80.00" from="534436815#2" to="30480341#2"/>
    <trip id="81" depart="81.00" from="302701029#0" to="531935294"/>
    <trip id="82" depart="82.00" from="427635471#0" to="24652207"/>
    <trip id="83" depart="83.00" from="85865018#1" to="431976822#1"/>
    <trip id="84" depart="84.00" from="409675305" to="24360454#2"/>
    <trip id="85" depart="85.00" from="24650064#1" to="534510784"/>
    <trip id="86" depart="86.00" from="431975590" to="-770741694"/>
    <trip id="87" depart="87.00" from="24650066" to="-24650942#1"/>
    <trip id="88" depart="88.00" from="431766086#0" to="420385363#0"/>
    <trip id="89" depart="89.00" from="-31922086#1" to="-31245585#1"/>
    <trip id="90" depart="90.00" from="425426454#1" to="-531938898"/>
    <trip id="91" depart="91.00" from="24672316#3" to="532139226"/>
    <trip id="92" depart="92.00" from="426225162#2" to="24652759#0"/>
    <trip id="93" depart="93.00" from="424804974#4" to="24652781#0"/>
    <trip id="94" depart="94.00" from="24611821#0" to="24361011#1"/>
    <trip id="95" depart="95.00" from="425195363" to="24212577#0"/>
    <trip id="96" depart="96.00" from="428066863#0" to="427635471#0"/>
    <trip id="97" depart="97.00" from="291083102#3" to="308669836"/>
    <trip id="98" depart="98.00" from="24612006" to="89383700#1"/>
    <trip id="99" depart="99.00" from="416013014#2" to="559865548#0"/>
    <trip id="100" depart="100.00" from="531902814" to="427643915"/>
    <trip id="101" depart="101.00" from="31018706" to="24650041#0"/>
    <trip id="102" depart="102.00" from="667191401#2" to="24666196#2"/>
    <trip id="103" depart="103.00" from="428048489#2" to="531952878"/>
    <trip id="104" depart="104.00" from="534433692#1" to="24611815#2"/>
    <trip id="105" depart="105.00" from="532184442" to="247705007"/>
    <trip id="106" depart="106.00" from="24360707#3" to="415999035#1"/>
    <trip id="107" depart="107.00" from="24419164#0" to="-24419164#0"/>
    <trip id="108" depart="108.00" from="415950908#1" to="424184690#2"/>
    <trip id="109" depart="109.00" from="427692679#1" to="-308669835#0"/>
    <trip id="110" depart="110.00" from="24652767" to="24650041#9"/>
    <trip id="111" depart="111.00" from="539419560" to="36921439"/>
    <trip id="112" depart="112.00" from="426225163#2" to="427692678#1"/>
    <trip id="113" depart="113.00" from="427888491#1" to="31246306#0"/>
    <trip id="114" depart="114.00" from="531955431" to="534542786"/>
    <trip id="115" depart="115.00" from="431762830" to="432793073#1"/>
    <trip id="116" depart="116.00" from="427691216#3" to="-24611997#3"/>
    <trip id="117" depart="117.00" from="425161101" to="667191401#2"/>
    <trip id="118" depart="118.00" from="24652778#0" to="431776018#2"/>
    <trip id="119" depart="119.00" from="291083101" to="427635472#1"/>
    <trip id="120" depart="120.00" from="409675309" to="427843246"/>
    <trip id="121" depart="121.00" from="421616332#1" to="427636275#0"/>
    <trip id="122" depart="122.00" from="150316498#3" to="510873600"/>
    <trip id="123" depart="123.00" from="540428269" to="291263660#0"/>
    <trip id="124" depart="124.00" from="425369970#1" to="431771498#1"/>
    <trip id="125" depart="125.00" from="667195599#0" to="291083098#1"/>
    <trip id="126" depart="126.00" from="89383700#1" to="531908097"/>
    <trip id="127" depart="127.00" from="24672251#2" to="385513376#0"/>
    <trip id="128" depart="128.00" from="31268070" to="24559890#4"/>
    <trip id="129" depart="129.00" from="531902813" to="424804974#4"/>
    <trip id="130" depart="130.00" from="37315584#2" to="24612004"/>
    <trip id="131" depart="131.00" from="24419185" to="291081710#0"/>
    <trip id="132" depart="132.00" from="531955431" to="531912914"/>
    <trip id="133" depart="133.00" from="427125130" to="31529455#0"/>
    <trip id="134" depart="134.00" from="420385362#1" to="-24211848#2"/>
    <trip id="135" depart="135.00" from="356064695#2" to="-24211848#3"/>
    <trip id="136" depart="136.00" from="415950908#1" to="-301808439"/>
    <trip id="137" depart="137.00" from="629645549" to="24650053"/>
    <trip id="138" depart="138.00" from="85865018#2" to="431768088#3"/>
    <trip id="139" depart="139.00" from="427691216#3" to="431737440"/>
</routes>
