<?xml version="1.0" encoding="UTF-8"?>
<!-- generated on 2020-05-22 02:24:56.935424 by randomTrips.py UNKNOWN
  options: -n erlangen.net.xml -r erlangen.rou.xml -e 140 -l
-->
<routes xmlns:xsi="http://www.w3.org/2001/XMLSchema-instance" xsi:noNamespaceSchemaLocation="http://sumo.dlr.de/xsd/routes_file.xsd">
    <trip id="0" depart="0.00" from="-35972438#3" to="370241718#3"/>
    <trip id="1" depart="1.00" from="415953888#1" to="428066863#2"/>
    <trip id="2" depart="2.00" from="24672302" to="427636275#1"/>
    <trip id="3" depart="3.00" from="24360382#0" to="36921441#0"/>
    <trip id="4" depart="4.00" from="427691216#3" to="431768088#4"/>
    <trip id="5" depart="5.00" from="24419164#0" to="24360577#0"/>
    <trip id="6" depart="6.00" from="310525155" to="356064688"/>
    <trip id="7" depart="7.00" from="-24672270" to="427692680"/>
    <trip id="8" depart="8.00" from="36921441#8" to="24666196#2"/>
    <trip id="9" depart="9.00" from="-287938198" to="31245582"/>
    <trip id="10" depart="10.00" from="24650050#1" to="422264046#6"/>
    <trip id="11" depart="11.00" from="35972437#2" to="128476488#1"/>
    <trip id="12" depart="12.00" from="431723954#3" to="24650079"/>
    <trip id="13" depart="13.00" from="37315584#2" to="36921441#2"/>
    <trip id="14" depart="14.00" from="24652223#0" to="432198818"/>
    <trip id="15" depart="15.00" from="421565755" to="427635471#1"/>
    <trip id="16" depart="16.00" from="431976822#1" to="-301810317#0"/>
    <trip id="17" depart="17.00" from="37315584#6" to="24617778#1"/>
    <trip id="18" depart="18.00" from="128476488#1" to="531935297"/>
    <trip id="19" depart="19.00" from="24652780#2" to="24611815#0"/>
    <trip id="20" depart="20.00" from="24652759#2" to="240659577#4"/>
    <trip id="21" depart="21.00" from="291083100#0" to="24360220#4"/>
    <trip id="22" depart="22.00" from="360617341#2" to="-24612003#0"/>
    <trip id="23" depart="23.00" from="302701028" to="24212573"/>
    <trip id="24" depart="24.00" from="538952543#1" to="24360707#3"/>
    <trip id="25" depart="25.00" from="31236598" to="431771498#1"/>
    <trip id="26" depart="26.00" from="24611821#0" to="291083105"/>
    <trip id="27" depart="27.00" from="532184442" to="24672301"/>
    <trip id="28" depart="28.00" from="531955431" to="422271119"/>
    <trip id="29" depart="29.00" from="291083098#0" to="302701809#1"/>
    <trip id="30" depart="30.00" from="559865548#0" to="-24211848#0"/>
    <trip id="31" depart="31.00" from="24360576" to="160695140#4"/>
    <trip id="32" depart="32.00" from="24650047#1" to="24211848#2"/>
    <trip id="33" depart="33.00" from="30480344#4" to="431946930"/>
    <trip id="34" depart="34.00" from="-24672270" to="24611822#0"/>
    <trip id="35" depart="35.00" from="427635471#0" to="-24211848#0"/>
    <trip id="36" depart="36.00" from="24361011#2" to="424804974#0"/>
    <trip id="37" depart="37.00" from="24360454#3" to="531935303"/>
    <trip id="38" depart="38.00" from="24611824#5" to="24672255#0"/>
    <trip id="39" depart="39.00" from="425161060#1" to="31290001"/>
    <trip id="40" depart="40.00" from="-24612001" to="24650210"/>
    <trip id="41" depart="41.00" from="420397519#0" to="425161101"/>
    <trip id="42" depart="42.00" from="427843247#1" to="24650057#1"/>
    <trip id="43" depart="43.00" from="420397509#1" to="428274872#0"/>
    <trip id="44" depart="44.00" from="420861084#1" to="-756749972"/>
    <trip id="45" depart="45.00" from="531908092#0" to="420861083"/>
    <trip id="46" depart="46.00" from="31529455#0" to="415999044"/>
    <trip id="47" depart="47.00" from="35972437#0" to="50502913#1"/>
    <trip id="48" depart="48.00" from="538952544" to="24360226"/>
    <trip id="49" depart="49.00" from="428048489#2" to="531904593"/>
    <trip id="50" depart="50.00" from="425426453#0" to="531953023"/>
    <trip id="51" depart="51.00" from="415999038#2" to="24650079"/>
    <trip id="52" depart="52.00" from="534433680" to="24361589#0"/>
    <trip id="53" depart="53.00" from="532139226" to="24360711"/>
    <trip id="54" depart="54.00" from="415999041#7" to="-24612002#0"/>
    <trip id="55" depart="55.00" from="415999035#7" to="24611822#0"/>
    <trip id="56" depart="56.00" from="287140829#0" to="31245582"/>
    <trip id="57" depart="57.00" from="36921441#7" to="24611824#5"/>
    <trip id="58" depart="58.00" from="24212577#0" to="24672282"/>
    <trip id="59" depart="59.00" from="37017374#1" to="431981409"/>
    <trip id="60" depart="60.00" from="420853981" to="24559890#4"/>
    <trip id="61" depart="61.00" from="50502913#1" to="302701026#2"/>
    <trip id="62" depart="62.00" from="432420736#0" to="662507857"/>
    <trip id="63" depart="63.00" from="431773478" to="532184438"/>
    <trip id="64" depart="64.00" from="409607687#1" to="534516107"/>
    <trip id="65" depart="65.00" from="24666196#0" to="-24611995#2"/>
    <trip id="66" depart="66.00" from="31529455#0" to="425382683#0"/>
    <trip id="67" depart="67.00" from="531937183#0" to="431976822#1"/>
    <trip id="68" depart="68.00" from="425369970#1" to="-652135081"/>
    <trip id="69" depart="69.00" from="427636275#1" to="415999034"/>
    <trip id="70" depart="70.00" from="427635472#0" to="24650209"/>
    <trip id="71" depart="71.00" from="149787545" to="426166046"/>
    <trip id="72" depart="72.00" from="409607687#1" to="538952543#1"/>
    <trip id="73" depart="73.00" from="50502913#1" to="24611822#0"/>
    <trip id="74" depart="74.00" from="37017374#1" to="-426166042"/>
    <trip id="75" depart="75.00" from="420397509#1" to="24650063"/>
    <trip id="76" depart="76.00" from="36921441#7" to="160695140#4"/>
    <trip id="77" depart="77.00" from="538783728" to="420397519#1"/>
    <trip id="78" depart="78.00" from="24361001#3" to="24360220#3"/>
    <trip id="79" depart="79.00" from="24360577#1" to="420385363#0"/>
    <trip id="80" depart="80.00" from="24212326#1" to="24212573"/>
    <trip id="81" depart="81.00" from="428066863#1" to="534548504"/>
    <trip id="82" depart="82.00" from="61129783" to="24650040#3"/>
    <trip id="83" depart="83.00" from="291083090" to="24611822#0"/>
    <trip id="84" depart="84.00" from="431768088#0" to="427635471#2"/>
    <trip id="85" depart="85.00" from="24360571#0" to="531908092#0"/>
    <trip id="86" depart="86.00" from="37315584#5" to="415999041#4"/>
    <trip id="87" depart="87.00" from="24650063" to="24361373#1"/>
    <trip id="88" depart="88.00" from="-662507857" to="302701026#1"/>
    <trip id="89" depart="89.00" from="61129783" to="409607687#1"/>
    <trip id="90" depart="90.00" from="24611999#0" to="24666196#1"/>
    <trip id="91" depart="91.00" from="287140829#1" to="431949568"/>
    <trip id="92" depart="92.00" from="24612002#0" to="24611808#1"/>
    <trip id="93" depart="93.00" from="425369970#1" to="424184690#1"/>
    <trip id="94" depart="94.00" from="-24612002#1" to="425205866#0"/>
    <trip id="95" depart="95.00" from="-301810317#1" to="292911530#2"/>
    <trip id="96" depart="96.00" from="71839143" to="531904593"/>
    <trip id="97" depart="97.00" from="35972438#4" to="425161101"/>
    <trip id="98" depart="98.00" from="431771498#1" to="24650041#2"/>
    <trip id="99" depart="99.00" from="531900686" to="427635471#1"/>
    <trip id="100" depart="100.00" from="-24211848#3" to="426225160#2"/>
    <trip id="101" depart="101.00" from="24666196#0" to="424184690#1"/>
    <trip id="102" depart="102.00" from="531908092#0" to="85865018#1"/>
    <trip id="103" depart="103.00" from="24672270" to="532184438"/>
    <trip id="104" depart="104.00" from="291263660#0" to="85865018#0"/>
    <trip id="105" depart="105.00" from="31245585#1" to="-531959844"/>
    <trip id="106" depart="106.00" from="531898575" to="415999035#1"/>
    <trip id="107" depart="107.00" from="308669837#2" to="428066862#0"/>
    <trip id="108" depart="108.00" from="667195599#1" to="531939267"/>
    <trip id="109" depart="109.00" from="431768088#2" to="532187506"/>
    <trip id="110" depart="110.00" from="428048488#1" to="24652765#0"/>
    <trip id="111" depart="111.00" from="426225160#2" to="24672281"/>
    <trip id="112" depart="112.00" from="-24611997#3" to="24650040#0"/>
    <trip id="113" depart="113.00" from="31528042" to="431771498#1"/>
    <trip id="114" depart="114.00" from="-24611997#3" to="431768088#4"/>
    <trip id="115" depart="115.00" from="24672251#3" to="36921441#4"/>
    <trip id="116" depart="116.00" from="291081716#1" to="534510784"/>
    <trip id="117" depart="117.00" from="420397519#2" to="-561831375#1"/>
    <trip id="118" depart="118.00" from="532139226" to="431762830"/>
    <trip id="119" depart="119.00" from="532138449#0" to="420861084#1"/>
    <trip id="120" depart="120.00" from="531935294" to="24666196#2"/>
    <trip id="121" depart="121.00" from="-31268070" to="24559890#1"/>
    <trip id="122" depart="122.00" from="24652780#0" to="24617779#1"/>
    <trip id="123" depart="123.00" from="421517001" to="415999043#1"/>
    <trip id="124" depart="124.00" from="291083102#8" to="-420397506#1"/>
    <trip id="125" depart="125.00" from="24360723#0" to="-24211848#3"/>
    <trip id="126" depart="126.00" from="24652772" to="431779825"/>
    <trip id="127" depart="127.00" from="424798280#2" to="431771498#1"/>
    <trip id="128" depart="128.00" from="-24211848#2" to="160695140#4"/>
    <trip id="129" depart="129.00" from="425369970#2" to="24611824#0"/>
    <trip id="130" depart="130.00" from="24360220#0" to="24617779#1"/>
    <trip id="131" depart="131.00" from="302701026#3" to="415950908#1"/>
    <trip id="132" depart="132.00" from="534510817#1" to="531908095"/>
    <trip id="133" depart="133.00" from="356064695#0" to="424184690#1"/>
    <trip id="134" depart="134.00" from="531935304#1" to="424798277#0"/>
    <trip id="135" depart="135.00" from="426225160#1" to="24681459#2"/>
    <trip id="136" depart="136.00" from="41374099#1" to="425391227"/>
    <trip id="137" depart="137.00" from="24681474" to="31143623#1"/>
    <trip id="138" depart="138.00" from="61129783" to="291083102#8"/>
    <trip id="139" depart="139.00" from="425205867#1" to="24360380#1"/>
</routes>
