<?xml version="1.0" encoding="UTF-8"?>
<!-- generated on 2020-05-22 02:25:50.948838 by randomTrips.py UNKNOWN
  options: -n erlangen.net.xml -r erlangen.rou.xml -e 140 -l
-->
<routes xmlns:xsi="http://www.w3.org/2001/XMLSchema-instance" xsi:noNamespaceSchemaLocation="http://sumo.dlr.de/xsd/routes_file.xsd">
    <trip id="0" depart="0.00" from="291083102#7" to="427129776"/>
    <trip id="1" depart="1.00" from="302701029#1" to="416013014#1"/>
    <trip id="2" depart="2.00" from="431768089#0" to="24212573"/>
    <trip id="3" depart="3.00" from="24211848#3" to="24212577#1"/>
    <trip id="4" depart="4.00" from="356064695#0" to="421565755"/>
    <trip id="5" depart="5.00" from="24650067#0" to="89383700#2"/>
    <trip id="6" depart="6.00" from="24650210" to="24611815#2"/>
    <trip id="7" depart="7.00" from="426166046" to="431768088#3"/>
    <trip id="8" depart="8.00" from="415999042#1" to="426225163#2"/>
    <trip id="9" depart="9.00" from="24360220#4" to="85865018#1"/>
    <trip id="10" depart="10.00" from="385513379" to="302701816#3"/>
    <trip id="11" depart="11.00" from="425205866#1" to="425161101"/>
    <trip id="12" depart="12.00" from="424804974#4" to="291083100#0"/>
    <trip id="13" depart="13.00" from="534433677" to="24650064#1"/>
    <trip id="14" depart="14.00" from="107938398" to="89383700#1"/>
    <trip id="15" depart="15.00" from="291083090" to="431737440"/>
    <trip id="16" depart="16.00" from="85865012#0" to="531935297"/>
    <trip id="17" depart="17.00" from="30480344#2" to="291083103#0"/>
    <trip id="18" depart="18.00" from="24361006#0" to="24652772"/>
    <trip id="19" depart="19.00" from="24212577#0" to="425161060#1"/>
    <trip id="20" depart="20.00" from="425161060#0" to="24681459#2"/>
    <trip id="21" depart="21.00" from="308669836" to="160695132"/>
    <trip id="22" depart="22.00" from="431768088#0" to="425205866#0"/>
    <trip id="23" depart="23.00" from="24611824#2" to="302701816#1"/>
    <trip id="24" depart="24.00" from="385513379" to="31236598"/>
    <trip id="25" depart="25.00" from="370241718#3" to="24650041#7"/>
    <trip id="26" depart="26.00" from="291083102#8" to="431996150#1"/>
    <trip id="27" depart="27.00" from="291083102#6" to="31290001"/>
    <trip id="28" depart="28.00" from="531952878" to="427635472#0"/>
    <trip id="29" depart="29.00" from="24650079" to="24611999#2"/>
    <trip id="30" depart="30.00" from="291083095#0" to="431771498#1"/>
    <trip id="31" depart="31.00" from="-24211848#3" to="415999034"/>
    <trip id="32" depart="32.00" from="432198810#0" to="427888491#1"/>
    <trip id="33" depart="33.00" from="415950908#1" to="-409675305"/>
    <trip id="34" depart="34.00" from="-24612004" to="-561831375#0"/>
    <trip id="35" depart="35.00" from="425426453#1" to="425426453#0"/>
    <trip id="36" depart="36.00" from="531937189" to="531937183#0"/>
    <trip id="37" depart="37.00" from="427129777#2" to="-24611995#4"/>
    <trip id="38" depart="38.00" from="31528042" to="415999035#0"/>
    <trip id="39" depart="39.00" from="531955420" to="427691216#4"/>
    <trip id="40" depart="40.00" from="421924777#1" to="-31245585#0"/>
    <trip id="41" depart="41.00" from="291263660#0" to="24360386#3"/>
    <trip id="42" depart="42.00" from="531939266" to="291083102#6"/>
    <trip id="43" depart="43.00" from="431771498#1" to="427692679#1"/>
    <trip id="44" depart="44.00" from="432793073#0" to="385513376#0"/>
    <trip id="45" depart="45.00" from="415999041#7" to="238009794#1"/>
    <trip id="46" depart="46.00" from="409673591#1" to="426225160#1"/>
    <trip id="47" depart="47.00" from="424184690#3" to="160695140#4"/>
    <trip id="48" depart="48.00" from="-63521323#1" to="422264046#5"/>
    <trip id="49" depart="49.00" from="370241718#8" to="24360389"/>
    <trip id="50" depart="50.00" from="427843247#0" to="426225163#2"/>
    <trip id="51" depart="51.00" from="531900686" to="24360386#0"/>
    <trip id="52" depart="52.00" from="532184442" to="24360571#0"/>
    <trip id="53" depart="53.00" from="531955426" to="420385362#1"/>
    <trip id="54" depart="54.00" from="-24681474" to="287140829#1"/>
    <trip id="55" depart="55.00" from="532138881#0" to="60268193"/>
    <trip id="56" depart="56.00" from="531908091" to="-409675305"/>
    <trip id="57" depart="57.00" from="35972437#0" to="302701817#1"/>
    <trip id="58" depart="58.00" from="427843247#1" to="24419185"/>
    <trip id="59" depart="59.00" from="24650044#0" to="302701029#0"/>
    <trip id="60" depart="60.00" from="424798277#0" to="24650041#0"/>
    <trip id="61" depart="61.00" from="24612003#0" to="36921441#4"/>
    <trip id="62" depart="62.00" from="24652213#1" to="-652135081"/>
    <trip id="63" depart="63.00" from="24360380#0" to="431766086#0"/>
    <trip id="64" depart="64.00" from="-24612006" to="24361400#1"/>
    <trip id="65" depart="65.00" from="24611808#0" to="531908096"/>
    <trip id="66" depart="66.00" from="421557988#0" to="24360385"/>
    <trip id="67" depart="67.00" from="24612002#0" to="427636275#1"/>
    <trip id="68" depart="68.00" from="415999045" to="35972438#0"/>
    <trip id="69" depart="69.00" from="24652765#2" to="415999043#1"/>
    <trip id="70" depart="70.00" from="-24611997#1" to="-268437065"/>
    <trip id="71" depart="71.00" from="431740482" to="160695140#2"/>
    <trip id="72" depart="72.00" from="31245585#0" to="37315584#5"/>
    <trip id="73" depart="73.00" from="427636275#0" to="431768088#7"/>
    <trip id="74" depart="74.00" from="538952542" to="-31268070"/>
    <trip id="75" depart="75.00" from="531898573" to="95606290#0"/>
    <trip id="76" depart="76.00" from="426361938" to="427643916#0"/>
    <trip id="77" depart="77.00" from="538952544" to="247705006"/>
    <trip id="78" depart="78.00" from="425205866#1" to="534527523"/>
    <trip id="79" depart="79.00" from="427691216#3" to="291083102#9"/>
    <trip id="80" depart="80.00" from="24672316#3" to="291083100#0"/>
    <trip id="81" depart="81.00" from="24611999#1" to="425391226#0"/>
    <trip id="82" depart="82.00" from="425391227" to="424184690#3"/>
    <trip id="83" depart="83.00" from="24650041#4" to="425205867#0"/>
    <trip id="84" depart="84.00" from="534433692#0" to="302701816#1"/>
    <trip id="85" depart="85.00" from="24650210" to="368784885"/>
    <trip id="86" depart="86.00" from="24360220#0" to="291083099"/>
    <trip id="87" depart="87.00" from="428066863#0" to="291083092#0"/>
    <trip id="88" depart="88.00" from="24360711" to="24612002#0"/>
    <trip id="89" depart="89.00" from="534510824" to="532188875"/>
    <trip id="90" depart="90.00" from="420853981" to="31236598"/>
    <trip id="91" depart="91.00" from="425161053#0" to="302701817#0"/>
    <trip id="92" depart="92.00" from="425391226#1" to="538952543#1"/>
    <trip id="93" depart="93.00" from="424798277#0" to="431768088#1"/>
    <trip id="94" depart="94.00" from="150316498#4" to="427636275#0"/>
    <trip id="95" depart="95.00" from="24650211" to="427691216#0"/>
    <trip id="96" depart="96.00" from="291263660#0" to="532184442"/>
    <trip id="97" depart="97.00" from="431768087#3" to="291083095#1"/>
    <trip id="98" depart="98.00" from="24652778#0" to="415953888#1"/>
    <trip id="99" depart="99.00" from="426166043#0" to="24360577#1"/>
    <trip id="100" depart="100.00" from="427691216#6" to="24212577#1"/>
    <trip id="101" depart="101.00" from="-35972438#2" to="31143623#0"/>
    <trip id="102" depart="102.00" from="24650942#1" to="24361582"/>
    <trip id="103" depart="103.00" from="-24360389" to="415950908#1"/>
    <trip id="104" depart="104.00" from="534436790#1" to="420853981"/>
    <trip id="105" depart="105.00" from="24650210" to="420397519#1"/>
    <trip id="106" depart="106.00" from="415953888#1" to="424798280#2"/>
    <trip id="107" depart="107.00" from="432420736#1" to="24361001#0"/>
    <trip id="108" depart="108.00" from="531902814" to="24419172"/>
    <trip id="109" depart="109.00" from="385513379" to="-420397514"/>
    <trip id="110" depart="110.00" from="431996150#1" to="37315584#5"/>
    <trip id="111" depart="111.00" from="290167854" to="24419172"/>
    <trip id="112" depart="112.00" from="428048489#0" to="431976822#1"/>
    <trip id="113" depart="113.00" from="24361011#3" to="531908091"/>
    <trip id="114" depart="114.00" from="24211848#3" to="240659577#4"/>
    <trip id="115" depart="115.00" from="31245585#1" to="24360220#3"/>
    <trip id="116" depart="116.00" from="31921276" to="24650209"/>
    <trip id="117" depart="117.00" from="531955417" to="431722531#1"/>
    <trip id="118" depart="118.00" from="24406756#0" to="24666196#0"/>
    <trip id="119" depart="119.00" from="24559890#1" to="-24611998#2"/>
    <trip id="120" depart="120.00" from="425391225" to="150166749#0"/>
    <trip id="121" depart="121.00" from="415999041#1" to="427635472#1"/>
    <trip id="122" depart="122.00" from="36921441#2" to="85865012#0"/>
    <trip id="123" depart="123.00" from="534510803#1" to="302701809#1"/>
    <trip id="124" depart="124.00" from="431768088#6" to="-24611997#3"/>
    <trip id="125" depart="125.00" from="24652222" to="423032020#1"/>
    <trip id="126" depart="126.00" from="31018706" to="-35972438#2"/>
    <trip id="127" depart="127.00" from="253069205" to="150316498#0"/>
    <trip id="128" depart="128.00" from="534516107" to="432145967#1"/>
    <trip id="129" depart="129.00" from="24650057#1" to="420385374#2"/>
    <trip id="130" depart="130.00" from="31143623#0" to="534433692#0"/>
    <trip id="131" depart="131.00" from="368784885" to="-107938398"/>
    <trip id="132" depart="132.00" from="85865012#0" to="531952877"/>
    <trip id="133" depart="133.00" from="531902813" to="106941332"/>
    <trip id="134" depart="134.00" from="427635472#2" to="409673591#2"/>
    <trip id="135" depart="135.00" from="431771840" to="24650050#0"/>
    <trip id="136" depart="136.00" from="24650055" to="291083105"/>
    <trip id="137" depart="137.00" from="431768087#2" to="24650059#1"/>
    <trip id="138" depart="138.00" from="531900686" to="425426453#1"/>
    <trip id="139" depart="139.00" from="31268070" to="302701817#1"/>
</routes>
