<?xml version="1.0" encoding="UTF-8"?>
<!-- generated on 2020-05-22 02:25:22.669682 by randomTrips.py UNKNOWN
  options: -n erlangen.net.xml -r erlangen.rou.xml -e 140 -l
-->
<routes xmlns:xsi="http://www.w3.org/2001/XMLSchema-instance" xsi:noNamespaceSchemaLocation="http://sumo.dlr.de/xsd/routes_file.xsd">
    <trip id="0" depart="0.00" from="150166749#0" to="-31245585#1"/>
    <trip id="1" depart="1.00" from="-173677133" to="24650040#4"/>
    <trip id="2" depart="2.00" from="534542784" to="432793073#1"/>
    <trip id="3" depart="3.00" from="532188879" to="24360577#1"/>
    <trip id="4" depart="4.00" from="427087977" to="238009794#0"/>
    <trip id="5" depart="5.00" from="24672302" to="532184441"/>
    <trip id="6" depart="6.00" from="-540428269" to="24360707#1"/>
    <trip id="7" depart="7.00" from="31236598" to="756749971"/>
    <trip id="8" depart="8.00" from="302701029#2" to="-420385374#2"/>
    <trip id="9" depart="9.00" from="24212327" to="424804974#1"/>
    <trip id="10" depart="10.00" from="150166749#0" to="424184690#2"/>
    <trip id="11" depart="11.00" from="420385362#1" to="24681459#2"/>
    <trip id="12" depart="12.00" from="31921706#2" to="24672251#3"/>
    <trip id="13" depart="13.00" from="37315584#6" to="24559802#5"/>
    <trip id="14" depart="14.00" from="420397508" to="360617341#1"/>
    <trip id="15" depart="15.00" from="-531959841" to="420385374#1"/>
    <trip id="16" depart="16.00" from="160695140#3" to="24612001"/>
    <trip id="17" depart="17.00" from="24650041#7" to="431975590"/>
    <trip id="18" depart="18.00" from="-540428269" to="415999044"/>
    <trip id="19" depart="19.00" from="-420385374#2" to="409675309"/>
    <trip id="20" depart="20.00" from="150316498#0" to="421565755"/>
    <trip id="21" depart="21.00" from="431722532#0" to="150166749#3"/>
    <trip id="22" depart="22.00" from="-409675305" to="432793073#1"/>
    <trip id="23" depart="23.00" from="421516192" to="24652209"/>
    <trip id="24" depart="24.00" from="427125129" to="24559802#4"/>
    <trip id="25" depart="25.00" from="421565755" to="559865548#0"/>
    <trip id="26" depart="26.00" from="291083100#0" to="291083100#2"/>
    <trip id="27" depart="27.00" from="24360702#0" to="24611815#0"/>
    <trip id="28" depart="28.00" from="422268369" to="531908093"/>
    <trip id="29" depart="29.00" from="424804974#1" to="424798277#0"/>
    <trip id="30" depart="30.00" from="291083097#2" to="308669837#2"/>
    <trip id="31" depart="31.00" from="24360707#2" to="291083100#2"/>
    <trip id="32" depart="32.00" from="24360386#0" to="-420385374#2"/>
    <trip id="33" depart="33.00" from="24650038#1" to="302701817#3"/>
    <trip id="34" depart="34.00" from="370241718#3" to="31921706#1"/>
    <trip id="35" depart="35.00" from="24650040#4" to="538952543#1"/>
    <trip id="36" depart="36.00" from="24611824#4" to="173516435"/>
    <trip id="37" depart="37.00" from="531898575" to="415999042#1"/>
    <trip id="38" depart="38.00" from="-173677133" to="356064695#2"/>
    <trip id="39" depart="39.00" from="534510784" to="540428272"/>
    <trip id="40" depart="40.00" from="24611824#4" to="531952880"/>
    <trip id="41" depart="41.00" from="302701809#0" to="385513379"/>
    <trip id="42" depart="42.00" from="-24360389" to="160695140#1"/>
    <trip id="43" depart="43.00" from="426166046" to="531959844"/>
    <trip id="44" depart="44.00" from="-24652227" to="291083101"/>
    <trip id="45" depart="45.00" from="24650943#0" to="292911530#0"/>
    <trip id="46" depart="46.00" from="426361938" to="-24650942#1"/>
    <trip id="47" depart="47.00" from="24360707#2" to="-24419164#0"/>
    <trip id="48" depart="48.00" from="420397519#0" to="24360219"/>
    <trip id="49" depart="49.00" from="425391226#1" to="538947358"/>
    <trip id="50" depart="50.00" from="24360707#1" to="531935304#0"/>
    <trip id="51" depart="51.00" from="-427692678#0" to="37315584#5"/>
    <trip id="52" depart="52.00" from="287140829#1" to="424804974#4"/>
    <trip id="53" depart="53.00" from="540428272" to="24672255#1"/>
    <trip id="54" depart="54.00" from="531935294" to="427636275#1"/>
    <trip id="55" depart="55.00" from="31245585#1" to="24650053"/>
    <trip id="56" depart="56.00" from="415999042#0" to="531908097"/>
    <trip id="57" depart="57.00" from="420385367#1" to="24666196#2"/>
    <trip id="58" depart="58.00" from="415999039" to="426166044"/>
    <trip id="59" depart="59.00" from="89383700#0" to="425391226#0"/>
    <trip id="60" depart="60.00" from="24652778#0" to="531908097"/>
    <trip id="61" depart="61.00" from="-31245585#1" to="531908095"/>
    <trip id="62" depart="62.00" from="421924777#1" to="427125129"/>
    <trip id="63" depart="63.00" from="24419164#0" to="531937192"/>
    <trip id="64" depart="64.00" from="431722532#0" to="425205866#1"/>
    <trip id="65" depart="65.00" from="85865012#0" to="-24211848#0"/>
    <trip id="66" depart="66.00" from="389775709" to="24211848#1"/>
    <trip id="67" depart="67.00" from="31245582" to="24361011#3"/>
    <trip id="68" depart="68.00" from="220063159" to="24360454#2"/>
    <trip id="69" depart="69.00" from="24650041#2" to="531908097"/>
    <trip id="70" depart="70.00" from="428274872#0" to="-31245585#0"/>
    <trip id="71" depart="71.00" from="425195362" to="150316498#4"/>
    <trip id="72" depart="72.00" from="652135081" to="302701031"/>
    <trip id="73" depart="73.00" from="540363260#0" to="409673591#0"/>
    <trip id="74" depart="74.00" from="24652764#0" to="36921439"/>
    <trip id="75" depart="75.00" from="24559802#0" to="24666196#2"/>
    <trip id="76" depart="76.00" from="-24211848#3" to="427692678#1"/>
    <trip id="77" depart="77.00" from="24652759#2" to="-531939266"/>
    <trip id="78" depart="78.00" from="-24611999#1" to="24611815#0"/>
    <trip id="79" depart="79.00" from="368784885" to="291083102#2"/>
    <trip id="80" depart="80.00" from="540363260#1" to="415999041#5"/>
    <trip id="81" depart="81.00" from="291083095#0" to="291081716#1"/>
    <trip id="82" depart="82.00" from="24652765#1" to="426225160#1"/>
    <trip id="83" depart="83.00" from="-63521323#1" to="534433671"/>
    <trip id="84" depart="84.00" from="427635472#2" to="308669836"/>
    <trip id="85" depart="85.00" from="431740482" to="-31268070"/>
    <trip id="86" depart="86.00" from="247705007" to="427888491#2"/>
    <trip id="87" depart="87.00" from="425205866#1" to="427125130"/>
    <trip id="88" depart="88.00" from="424804974#0" to="-24211848#0"/>
    <trip id="89" depart="89.00" from="291083102#9" to="421924785"/>
    <trip id="90" depart="90.00" from="534433692#0" to="291083098#2"/>
    <trip id="91" depart="91.00" from="291083098#2" to="424184688#3"/>
    <trip id="92" depart="92.00" from="415999041#7" to="425357175#2"/>
    <trip id="93" depart="93.00" from="-24211848#3" to="24652781#2"/>
    <trip id="94" depart="94.00" from="291081710#0" to="24650943#3"/>
    <trip id="95" depart="95.00" from="652135081" to="531955427"/>
    <trip id="96" depart="96.00" from="356064695#2" to="302701816#3"/>
    <trip id="97" depart="97.00" from="291083100#1" to="291083102#7"/>
    <trip id="98" depart="98.00" from="61129783" to="425426453#1"/>
    <trip id="99" depart="99.00" from="160695432#0" to="531955424"/>
    <trip id="100" depart="100.00" from="24666196#1" to="24360226"/>
    <trip id="101" depart="101.00" from="415999042#0" to="531952882"/>
    <trip id="102" depart="102.00" from="385513376#0" to="424798277#0"/>
    <trip id="103" depart="103.00" from="534433692#0" to="24652207"/>
    <trip id="104" depart="104.00" from="428274872#0" to="24652209"/>
    <trip id="105" depart="105.00" from="415999041#4" to="24652778#1"/>
    <trip id="106" depart="106.00" from="-24419185" to="31527988"/>
    <trip id="107" depart="107.00" from="24672301" to="538952543#0"/>
    <trip id="108" depart="108.00" from="-540428269" to="24361400#1"/>
    <trip id="109" depart="109.00" from="291083102#5" to="420385374#2"/>
    <trip id="110" depart="110.00" from="24652778#1" to="-24211848#0"/>
    <trip id="111" depart="111.00" from="428274872#0" to="425426453#2"/>
    <trip id="112" depart="112.00" from="24666196#0" to="24559926"/>
    <trip id="113" depart="113.00" from="-35972438#2" to="427843247#0"/>
    <trip id="114" depart="114.00" from="24611811#0" to="415999041#4"/>
    <trip id="115" depart="115.00" from="385513380" to="24672301"/>
    <trip id="116" depart="116.00" from="308669837#1" to="291083100#1"/>
    <trip id="117" depart="117.00" from="24360380#0" to="-287938198"/>
    <trip id="118" depart="118.00" from="238009794#2" to="24666196#1"/>
    <trip id="119" depart="119.00" from="31143623#1" to="24666196#1"/>
    <trip id="120" depart="120.00" from="310525155" to="427843247#1"/>
    <trip id="121" depart="121.00" from="539419561#0" to="24212326#2"/>
    <trip id="122" depart="122.00" from="37315584#0" to="431768088#7"/>
    <trip id="123" depart="123.00" from="420385363#1" to="292911530#0"/>
    <trip id="124" depart="124.00" from="308669837#0" to="24361582"/>
    <trip id="125" depart="125.00" from="291081716#1" to="532138880#1"/>
    <trip id="126" depart="126.00" from="24611822#0" to="415999043#1"/>
    <trip id="127" depart="127.00" from="24360382#0" to="531937187"/>
    <trip id="128" depart="128.00" from="24611999#0" to="426166042"/>
    <trip id="129" depart="129.00" from="24361400#0" to="667195599#0"/>
    <trip id="130" depart="130.00" from="24360702#3" to="24652765#1"/>
    <trip id="131" depart="131.00" from="-356064688" to="415953888#1"/>
    <trip id="132" depart="132.00" from="24611815#2" to="24611811#1"/>
    <trip id="133" depart="133.00" from="24611815#2" to="24650943#1"/>
    <trip id="134" depart="134.00" from="-24650034" to="24672316#3"/>
    <trip id="135" depart="135.00" from="431975590" to="431981410"/>
    <trip id="136" depart="136.00" from="24672251#4" to="534510817#2"/>
    <trip id="137" depart="137.00" from="24666196#1" to="24681459#2"/>
    <trip id="138" depart="138.00" from="422264046#6" to="24672251#3"/>
    <trip id="139" depart="139.00" from="421924777#1" to="432805065"/>
</routes>
