<?xml version="1.0" encoding="UTF-8"?>
<!-- generated on 2020-05-22 02:26:07.073806 by randomTrips.py UNKNOWN
  options: -n erlangen.net.xml -r erlangen.rou.xml -e 140 -l
-->
<routes xmlns:xsi="http://www.w3.org/2001/XMLSchema-instance" xsi:noNamespaceSchemaLocation="http://sumo.dlr.de/xsd/routes_file.xsd">
    <trip id="0" depart="0.00" from="431776018#1" to="540363260#0"/>
    <trip id="1" depart="1.00" from="219886402" to="24681474"/>
    <trip id="2" depart="2.00" from="24652770" to="291083097#2"/>
    <trip id="3" depart="3.00" from="31529455#0" to="24652781#0"/>
    <trip id="4" depart="4.00" from="426387471" to="36921441#6"/>
    <trip id="5" depart="5.00" from="-24681474" to="150316498#0"/>
    <trip id="6" depart="6.00" from="31018706" to="532184444"/>
    <trip id="7" depart="7.00" from="24611824#4" to="24611820"/>
    <trip id="8" depart="8.00" from="35972439#1" to="-199287420#0"/>
    <trip id="9" depart="9.00" from="291083102#3" to="24360723#0"/>
    <trip id="10" depart="10.00" from="531908093" to="-31280190"/>
    <trip id="11" depart="11.00" from="425161101" to="24650050#2"/>
    <trip id="12" depart="12.00" from="531908097" to="409675309"/>
    <trip id="13" depart="13.00" from="531908096" to="24650040#3"/>
    <trip id="14" depart="14.00" from="24652222" to="415999034"/>
    <trip id="15" depart="15.00" from="173516435" to="427888491#2"/>
    <trip id="16" depart="16.00" from="24650045#1" to="24652213#1"/>
    <trip id="17" depart="17.00" from="427635472#4" to="426225160#1"/>
    <trip id="18" depart="18.00" from="427125129" to="24652207"/>
    <trip id="19" depart="19.00" from="268437065" to="24652213#1"/>
    <trip id="20" depart="20.00" from="24652780#0" to="428274872#0"/>
    <trip id="21" depart="21.00" from="431771840" to="428274872#0"/>
    <trip id="22" depart="22.00" from="-24611999#2" to="24650041#6"/>
    <trip id="23" depart="23.00" from="150166749#1" to="31143623#0"/>
    <trip id="24" depart="24.00" from="425369970#0" to="24650081#0"/>
    <trip id="25" depart="25.00" from="31245585#1" to="36826295#1"/>
    <trip id="26" depart="26.00" from="24361011#3" to="107938398"/>
    <trip id="27" depart="27.00" from="428066863#1" to="427643916#1"/>
    <trip id="28" depart="28.00" from="24666196#1" to="24611995#4"/>
    <trip id="29" depart="29.00" from="431770506" to="50502934"/>
    <trip id="30" depart="30.00" from="431768088#1" to="431768087#2"/>
    <trip id="31" depart="31.00" from="291083100#0" to="160695432#0"/>
    <trip id="32" depart="32.00" from="24650041#7" to="370241718#8"/>
    <trip id="33" depart="33.00" from="431773478" to="409673591#0"/>
    <trip id="34" depart="34.00" from="431737440" to="50502913#1"/>
    <trip id="35" depart="35.00" from="308669838" to="420853985"/>
    <trip id="36" depart="36.00" from="538952543#0" to="531904593"/>
    <trip id="37" depart="37.00" from="-128476620#1" to="532184761"/>
    <trip id="38" depart="38.00" from="-31268070" to="425426454#1"/>
    <trip id="39" depart="39.00" from="428274872#1" to="31236598"/>
    <trip id="40" depart="40.00" from="150316498#1" to="37017374#1"/>
    <trip id="41" depart="41.00" from="540363260#1" to="36921441#3"/>
    <trip id="42" depart="42.00" from="291263660#0" to="302701816#3"/>
    <trip id="43" depart="43.00" from="-35972438#2" to="427691216#3"/>
    <trip id="44" depart="44.00" from="-427692678#1" to="431766086#0"/>
    <trip id="45" depart="45.00" from="431768085" to="-107938398"/>
    <trip id="46" depart="46.00" from="421491565#1" to="427906278#0"/>
    <trip id="47" depart="47.00" from="302701031" to="37315584#3"/>
    <trip id="48" depart="48.00" from="310525151" to="-63521323#1"/>
    <trip id="49" depart="49.00" from="510873600" to="370241718#7"/>
    <trip id="50" depart="50.00" from="-24611997#2" to="128476620#1"/>
    <trip id="51" depart="51.00" from="-24612001" to="424804974#1"/>
    <trip id="52" depart="52.00" from="31245585#1" to="24652222"/>
    <trip id="53" depart="53.00" from="426361938" to="420397519#1"/>
    <trip id="54" depart="54.00" from="150316498#0" to="24650050#1"/>
    <trip id="55" depart="55.00" from="160695140#4" to="431751174#0"/>
    <trip id="56" depart="56.00" from="24652759#4" to="30480344#5"/>
    <trip id="57" depart="57.00" from="24617779#1" to="31246306#0"/>
    <trip id="58" depart="58.00" from="421924785" to="207236608"/>
    <trip id="59" depart="59.00" from="534433692#0" to="36921441#0"/>
    <trip id="60" depart="60.00" from="24612137" to="24612002#1"/>
    <trip id="61" depart="61.00" from="24650024" to="24612004"/>
    <trip id="62" depart="62.00" from="24652222" to="415999035#1"/>
    <trip id="63" depart="63.00" from="107938320#2" to="30480344#5"/>
    <trip id="64" depart="64.00" from="534544851#0" to="416005326"/>
    <trip id="65" depart="65.00" from="425195366" to="-531939266"/>
    <trip id="66" depart="66.00" from="431914699" to="531902814"/>
    <trip id="67" depart="67.00" from="107938380#0" to="427692678#0"/>
    <trip id="68" depart="68.00" from="409675305" to="24650078"/>
    <trip id="69" depart="69.00" from="-128476620#1" to="532137771"/>
    <trip id="70" depart="70.00" from="24650209" to="24361011#3"/>
    <trip id="71" depart="71.00" from="238009794#1" to="291083100#0"/>
    <trip id="72" depart="72.00" from="561831375#1" to="35972438#0"/>
    <trip id="73" depart="73.00" from="415950908#1" to="534516106"/>
    <trip id="74" depart="74.00" from="-24212573" to="24681474"/>
    <trip id="75" depart="75.00" from="24650055" to="24360382#0"/>
    <trip id="76" depart="76.00" from="427635472#2" to="427691216#2"/>
    <trip id="77" depart="77.00" from="425391226#0" to="-370241715"/>
    <trip id="78" depart="78.00" from="415999038#2" to="432822448"/>
    <trip id="79" depart="79.00" from="425391226#1" to="424804974#3"/>
    <trip id="80" depart="80.00" from="415999042#1" to="31245582"/>
    <trip id="81" depart="81.00" from="-420397506#2" to="415999044"/>
    <trip id="82" depart="82.00" from="427843246" to="287938197"/>
    <trip id="83" depart="83.00" from="302701816#0" to="301808439"/>
    <trip id="84" depart="84.00" from="370241718#1" to="-561831375#1"/>
    <trip id="85" depart="85.00" from="667191401#0" to="-24361580"/>
    <trip id="86" depart="86.00" from="532182104" to="370242036"/>
    <trip id="87" depart="87.00" from="150316498#0" to="531955426"/>
    <trip id="88" depart="88.00" from="24419185" to="409673591#2"/>
    <trip id="89" depart="89.00" from="291081716#1" to="425369970#1"/>
    <trip id="90" depart="90.00" from="431773478" to="290167854"/>
    <trip id="91" depart="91.00" from="24360386#0" to="-24419164#0"/>
    <trip id="92" depart="92.00" from="431768088#3" to="385513379"/>
    <trip id="93" depart="93.00" from="422268369" to="24652222"/>
    <trip id="94" depart="94.00" from="24361400#1" to="24360574"/>
    <trip id="95" depart="95.00" from="-35972438#4" to="421617168"/>
    <trip id="96" depart="96.00" from="424804974#1" to="532139226"/>
    <trip id="97" depart="97.00" from="-24211848#3" to="24361001#0"/>
    <trip id="98" depart="98.00" from="31529455#0" to="24650052#0"/>
    <trip id="99" depart="99.00" from="291083100#0" to="431996150#1"/>
    <trip id="100" depart="100.00" from="-24611995#4" to="370242036"/>
    <trip id="101" depart="101.00" from="24650209" to="427692679#1"/>
    <trip id="102" depart="102.00" from="238009794#4" to="24652780#0"/>
    <trip id="103" depart="103.00" from="24406756#0" to="415999045"/>
    <trip id="104" depart="104.00" from="24672253" to="24361001#0"/>
    <trip id="105" depart="105.00" from="89383700#0" to="31280190"/>
    <trip id="106" depart="106.00" from="432805066" to="431737436"/>
    <trip id="107" depart="107.00" from="24612002#0" to="-420397514"/>
    <trip id="108" depart="108.00" from="431975590" to="427643915"/>
    <trip id="109" depart="109.00" from="531908094" to="138055545#1"/>
    <trip id="110" depart="110.00" from="107938380#1" to="425391227"/>
    <trip id="111" depart="111.00" from="667195599#5" to="24650041#4"/>
    <trip id="112" depart="112.00" from="291083102#4" to="-24672270"/>
    <trip id="113" depart="113.00" from="-24681474" to="-24419164#0"/>
    <trip id="114" depart="114.00" from="24360382#1" to="24612002#0"/>
    <trip id="115" depart="115.00" from="415999041#7" to="409607687#1"/>
    <trip id="116" depart="116.00" from="106941334" to="531902813"/>
    <trip id="117" depart="117.00" from="31921706#3" to="425369970#1"/>
    <trip id="118" depart="118.00" from="356064695#0" to="420385362#0"/>
    <trip id="119" depart="119.00" from="-287938198" to="24361400#1"/>
    <trip id="120" depart="120.00" from="540428269" to="24611999#1"/>
    <trip id="121" depart="121.00" from="-426166042" to="24211848#3"/>
    <trip id="122" depart="122.00" from="559865548#0" to="534510764"/>
    <trip id="123" depart="123.00" from="424184690#3" to="422271119"/>
    <trip id="124" depart="124.00" from="427888491#2" to="24672303"/>
    <trip id="125" depart="125.00" from="36921441#2" to="427635472#3"/>
    <trip id="126" depart="126.00" from="415950908#1" to="538783729"/>
    <trip id="127" depart="127.00" from="291083102#9" to="24650040#3"/>
    <trip id="128" depart="128.00" from="24361001#0" to="426245385#0"/>
    <trip id="129" depart="129.00" from="531935292" to="431766086#1"/>
    <trip id="130" depart="130.00" from="531908097" to="287938198"/>
    <trip id="131" depart="131.00" from="427635472#2" to="36826295#1"/>
    <trip id="132" depart="132.00" from="356064695#0" to="150166771#1"/>
    <trip id="133" depart="133.00" from="24650059#1" to="24559802#5"/>
    <trip id="134" depart="134.00" from="36921441#2" to="-561831375#0"/>
    <trip id="135" depart="135.00" from="420853981" to="534527523"/>
    <trip id="136" depart="136.00" from="431776018#1" to="425357175#2"/>
    <trip id="137" depart="137.00" from="431773478" to="24650041#6"/>
    <trip id="138" depart="138.00" from="24681474" to="-31245585#0"/>
    <trip id="139" depart="139.00" from="427635472#0" to="291083103#0"/>
</routes>
