<?xml version="1.0" encoding="UTF-8"?>
<!-- generated on 2020-05-22 02:24:37.851506 by randomTrips.py UNKNOWN
  options: -n erlangen.net.xml -r erlangen.rou.xml -e 140 -l
-->
<routes xmlns:xsi="http://www.w3.org/2001/XMLSchema-instance" xsi:noNamespaceSchemaLocation="http://sumo.dlr.de/xsd/routes_file.xsd">
    <trip id="0" depart="0.00" from="-540428269" to="37315584#2"/>
    <trip id="1" depart="1.00" from="432198819" to="-770741694"/>
    <trip id="2" depart="2.00" from="-128476620#1" to="416013014#2"/>
    <trip id="3" depart="3.00" from="427843247#1" to="421491565#2"/>
    <trip id="4" depart="4.00" from="426361938" to="424798280#2"/>
    <trip id="5" depart="5.00" from="35972438#4" to="24360576"/>
    <trip id="6" depart="6.00" from="24611824#5" to="173516435"/>
    <trip id="7" depart="7.00" from="-107938398" to="24360454#4"/>
    <trip id="8" depart="8.00" from="409675305" to="291083102#9"/>
    <trip id="9" depart="9.00" from="24650943#3" to="-24211848#3"/>
    <trip id="10" depart="10.00" from="356064695#2" to="150166749#0"/>
    <trip id="11" depart="11.00" from="-24360705" to="24559890#3"/>
    <trip id="12" depart="12.00" from="36921441#0" to="432793073#1"/>
    <trip id="13" depart="13.00" from="534510784" to="291083097#2"/>
    <trip id="14" depart="14.00" from="425391227" to="24650044#0"/>
    <trip id="15" depart="15.00" from="424792137" to="24652222"/>
    <trip id="16" depart="16.00" from="24650040#0" to="427643918#1"/>
    <trip id="17" depart="17.00" from="31921706#2" to="24650050#3"/>
    <trip id="18" depart="18.00" from="426225163#2" to="128476620#1"/>
    <trip id="19" depart="19.00" from="-128476620#1" to="24650040#4"/>
    <trip id="20" depart="20.00" from="35972438#0" to="427692678#1"/>
    <trip id="21" depart="21.00" from="106941334" to="24612002#1"/>
    <trip id="22" depart="22.00" from="531952886" to="24650046"/>
    <trip id="23" depart="23.00" from="31922086#1" to="532182104"/>
    <trip id="24" depart="24.00" from="302701031" to="432145967#1"/>
    <trip id="25" depart="25.00" from="426361938" to="420397513#1"/>
    <trip id="26" depart="26.00" from="24650044#1" to="534516107"/>
    <trip id="27" depart="27.00" from="24360382#0" to="415999034"/>
    <trip id="28" depart="28.00" from="363221375" to="420385367#0"/>
    <trip id="29" depart="29.00" from="431768088#0" to="427888491#3"/>
    <trip id="30" depart="30.00" from="24361011#3" to="409673591#2"/>
    <trip id="31" depart="31.00" from="415999039" to="421924785"/>
    <trip id="32" depart="32.00" from="424798277#0" to="36921441#7"/>
    <trip id="33" depart="33.00" from="427643916#0" to="24650078"/>
    <trip id="34" depart="34.00" from="291081710#1" to="247705006"/>
    <trip id="35" depart="35.00" from="534548502" to="425426453#2"/>
    <trip id="36" depart="36.00" from="253069205" to="531902813"/>
    <trip id="37" depart="37.00" from="431737436" to="531937185"/>
    <trip id="38" depart="38.00" from="24360220#0" to="308669835#0"/>
    <trip id="39" depart="39.00" from="24652759#4" to="24612006"/>
    <trip id="40" depart="40.00" from="421491565#2" to="24652227"/>
    <trip id="41" depart="41.00" from="423032020#1" to="50502913#1"/>
    <trip id="42" depart="42.00" from="420397519#1" to="291083102#3"/>
    <trip id="43" depart="43.00" from="85865018#7" to="-420397506#1"/>
    <trip id="44" depart="44.00" from="532187517" to="24650041#1"/>
    <trip id="45" depart="45.00" from="24672324" to="426225160#0"/>
    <trip id="46" depart="46.00" from="24360386#2" to="531908091"/>
    <trip id="47" depart="47.00" from="421491565#2" to="24650044#1"/>
    <trip id="48" depart="48.00" from="292911530#2" to="24652780#1"/>
    <trip id="49" depart="49.00" from="370241718#11" to="24650040#4"/>
    <trip id="50" depart="50.00" from="424184689#0" to="24650040#6"/>
    <trip id="51" depart="51.00" from="422264046#2" to="291083102#7"/>
    <trip id="52" depart="52.00" from="24652759#1" to="427635472#1"/>
    <trip id="53" depart="53.00" from="291083104#0" to="24650209"/>
    <trip id="54" depart="54.00" from="421565755" to="24650057#1"/>
    <trip id="55" depart="55.00" from="427691216#4" to="31529455#1"/>
    <trip id="56" depart="56.00" from="24212327" to="302701028"/>
    <trip id="57" depart="57.00" from="415999045" to="24611808#1"/>
    <trip id="58" depart="58.00" from="24360707#1" to="534516107"/>
    <trip id="59" depart="59.00" from="106941334" to="415999042#0"/>
    <trip id="60" depart="60.00" from="356064695#2" to="531935304#1"/>
    <trip id="61" depart="61.00" from="420854026" to="24611815#2"/>
    <trip id="62" depart="62.00" from="291083104#1" to="24211848#2"/>
    <trip id="63" depart="63.00" from="24360389" to="-24681474"/>
    <trip id="64" depart="64.00" from="24650942#1" to="424183875#2"/>
    <trip id="65" depart="65.00" from="427692678#1" to="426225162#2"/>
    <trip id="66" depart="66.00" from="532182104" to="531952884"/>
    <trip id="67" depart="67.00" from="-421617168" to="409675309"/>
    <trip id="68" depart="68.00" from="432805066" to="431771498#1"/>
    <trip id="69" depart="69.00" from="415999041#4" to="-24612003#0"/>
    <trip id="70" depart="70.00" from="425391227" to="431773479#0"/>
    <trip id="71" depart="71.00" from="426225160#0" to="424804974#3"/>
    <trip id="72" depart="72.00" from="-24419164#0" to="420385362#1"/>
    <trip id="73" depart="73.00" from="427692678#1" to="24650079"/>
    <trip id="74" depart="74.00" from="-356064695#0" to="291083095#0"/>
    <trip id="75" depart="75.00" from="652135081" to="308669835#0"/>
    <trip id="76" depart="76.00" from="420385367#0" to="24612006"/>
    <trip id="77" depart="77.00" from="-24211848#3" to="160695132"/>
    <trip id="78" depart="78.00" from="-510873600" to="421517001"/>
    <trip id="79" depart="79.00" from="24650040#2" to="415999041#0"/>
    <trip id="80" depart="80.00" from="291083105" to="89383700#1"/>
    <trip id="81" depart="81.00" from="24559890#3" to="24361373#1"/>
    <trip id="82" depart="82.00" from="431737440" to="-427692678#1"/>
    <trip id="83" depart="83.00" from="431766086#1" to="24650049"/>
    <trip id="84" depart="84.00" from="370241718#1" to="425357175#2"/>
    <trip id="85" depart="85.00" from="-24211848#3" to="24652227"/>
    <trip id="86" depart="86.00" from="431768087#3" to="531952878"/>
    <trip id="87" depart="87.00" from="667191401#1" to="415999040#1"/>
    <trip id="88" depart="88.00" from="-24211848#2" to="24652765#2"/>
    <trip id="89" depart="89.00" from="-531939266" to="287140829#0"/>
    <trip id="90" depart="90.00" from="-24211848#2" to="24652214"/>
    <trip id="91" depart="91.00" from="531952880" to="415953888#1"/>
    <trip id="92" depart="92.00" from="424792137" to="432145967#1"/>
    <trip id="93" depart="93.00" from="427636275#1" to="532137771"/>
    <trip id="94" depart="94.00" from="63521323#0" to="24361400#1"/>
    <trip id="95" depart="95.00" from="531953023" to="31529455#0"/>
    <trip id="96" depart="96.00" from="534548504" to="37017374#1"/>
    <trip id="97" depart="97.00" from="24650040#7" to="421924785"/>
    <trip id="98" depart="98.00" from="-420397506#3" to="422264046#5"/>
    <trip id="99" depart="99.00" from="416005326" to="431766086#1"/>
    <trip id="100" depart="100.00" from="24650943#1" to="24611811#0"/>
    <trip id="101" depart="101.00" from="420854021#0" to="409673592"/>
    <trip id="102" depart="102.00" from="24211848#3" to="428048489#2"/>
    <trip id="103" depart="103.00" from="24672253" to="121072321#1"/>
    <trip id="104" depart="104.00" from="431722531#0" to="531937186#1"/>
    <trip id="105" depart="105.00" from="415999042#0" to="24361400#0"/>
    <trip id="106" depart="106.00" from="24611999#2" to="150166771#1"/>
    <trip id="107" depart="107.00" from="531902814" to="415999041#7"/>
    <trip id="108" depart="108.00" from="160695432#0" to="425369970#0"/>
    <trip id="109" depart="109.00" from="426468658" to="421491565#1"/>
    <trip id="110" depart="110.00" from="559865548#0" to="431766086#1"/>
    <trip id="111" depart="111.00" from="-24611997#1" to="431975590"/>
    <trip id="112" depart="112.00" from="531937186#1" to="540428269"/>
    <trip id="113" depart="113.00" from="-24360385" to="416013014#1"/>
    <trip id="114" depart="114.00" from="302701817#7" to="415999041#2"/>
    <trip id="115" depart="115.00" from="24559802#5" to="-427692678#1"/>
    <trip id="116" depart="116.00" from="427888491#0" to="-432793073#0"/>
    <trip id="117" depart="117.00" from="534510810" to="431996150#0"/>
    <trip id="118" depart="118.00" from="431768088#4" to="24360723#1"/>
    <trip id="119" depart="119.00" from="24650079" to="220063159"/>
    <trip id="120" depart="120.00" from="431737440" to="24652207"/>
    <trip id="121" depart="121.00" from="24406756#0" to="24212573"/>
    <trip id="122" depart="122.00" from="24652778#0" to="409673592"/>
    <trip id="123" depart="123.00" from="291083097#5" to="-310525151"/>
    <trip id="124" depart="124.00" from="35972437#0" to="24652781#1"/>
    <trip id="125" depart="125.00" from="424798280#0" to="-531938898"/>
    <trip id="126" depart="126.00" from="428066862#1" to="36921441#1"/>
    <trip id="127" depart="127.00" from="538952543#1" to="24650041#6"/>
    <trip id="128" depart="128.00" from="24652759#4" to="150316498#4"/>
    <trip id="129" depart="129.00" from="534548502" to="427643918#0"/>
    <trip id="130" depart="130.00" from="302701817#7" to="63521323#1"/>
    <trip id="131" depart="131.00" from="24652765#1" to="89383700#2"/>
    <trip id="132" depart="132.00" from="415999035#0" to="-420397506#1"/>
    <trip id="133" depart="133.00" from="540363260#0" to="24212324"/>
    <trip id="134" depart="134.00" from="356064695#2" to="160695432#0"/>
    <trip id="135" depart="135.00" from="422264046#3" to="-31922086#1"/>
    <trip id="136" depart="136.00" from="24211848#0" to="291083098#1"/>
    <trip id="137" depart="137.00" from="-421617168" to="24211848#2"/>
    <trip id="138" depart="138.00" from="531953023" to="363246361"/>
    <trip id="139" depart="139.00" from="262429743" to="416013014#2"/>
</routes>
