<?xml version="1.0" encoding="UTF-8"?>

<!-- generated on Fri May 22 23:37:09 2020 by Eclipse SUMO duarouter Version 1.6.0
<configuration xmlns:xsi="http://www.w3.org/2001/XMLSchema-instance" xsi:noNamespaceSchemaLocation="http://sumo.dlr.de/xsd/duarouterConfiguration.xsd">

    <input>
        <net-file value="erlangen.net.xml"/>
        <route-files value="trips.trips.xml"/>
    </input>

    <output>
        <output-file value="erlangen.rou.xml"/>
        <alternatives-output value="erlangen.rou.alt.xml"/>
    </output>

    <time>
        <begin value="0"/>
        <end value="140.0"/>
    </time>

    <report>
        <no-warnings value="true"/>
        <ignore-errors value="true"/>
        <no-step-log value="true"/>
    </report>

</configuration>
-->

<routes xmlns:xsi="http://www.w3.org/2001/XMLSchema-instance" xsi:noNamespaceSchemaLocation="http://sumo.dlr.de/xsd/routes_file.xsd">
    <vType id="emergency" sigma="0.5" length="5" maxSpeed="50"/>

    <vehicle id="0" type="emergency" depart="0.00" color="1,0,0">
        <route edges="150166760 150166749#0 150166749#1 150166749#2 150166749#3 150166749#4 107938331 107938380#0 107938380#1 107938380#2 291083105 531952886 531952885 531952884 291083101 531952883 531952882 531952881 425391225 531952880 531952879 531952878 531952877 291083095#0 291083095#1 531952876 291083090 531953023 385513374 291081716#0 291081716#1 24406756#0 24406756#1 532137775#0 532137775#1 "/>
    </vehicle>  

    <vehicle id="1" type="emergency" depart="0.00" color="1,0,0">
        <route edges="150166760 150166749#0 150166749#1 150166749#2 150166749#3 150166749#4 107938331 107938380#0 107938380#1 107938380#2 291083105 531952886 531952885 531952884 291083101 531952883 531952882 531952881 425391225 531952880 531952879 531952878 531952877 291083095#0 291083095#1 531952876 291083090 531953023 385513374 291081716#0 291081716#1 24406756#0 24406756#1 532137775#0 532137775#1 "/>
    </vehicle>
    
    <vehicle id="2" depart="0.00">
        <route edges="431949568 415950908#0 415950908#1 427636275#0 427636275#1 427636275#2 427636275#3 421924783#0 421924783#1 523750725 421924785 85865018#0 85865018#1 85865018#2 85865018#3 85865018#4 85865018#5 85865018#6 85865018#7 532182104 532184445 532184444 432198818 24360576"/>
    </vehicle>
    <vehicle id="3" depart="0.00">
        <route edges="290167854 290167856 534548504 534548502 431771841#0 431771841#1 24650081#0 24650081#1 431722531#1 31016404 431722532#0 431722532#1 534433677 534433675 534433671 -71498398#1 -71498398#0 -356064688 -107938398 -420854021#1 -420854021#0 368784885 24360219 31529455#0 31529455#1"/>
    </vehicle>
    <vehicle id="4" depart="0.00">
        <route edges="24652778#1 667195599#0 667195599#1 425647416#0 425647416#1 425647416#2 534433692#0 534433692#1 534433690 534433687 534433680 534433684#0 534516113 534516112 50502913#1 290167854 290167856 150166750 432805066 427129776 427125129 428066862#0 428066862#1 538784511#0 538784511#1 531952885 531952884 291083101 531952883 531952882 531952881 291083098#0 291083098#1 291083098#2 416005331#0 416005331#1 416005329#0 416005329#1 416005329#2 416005329#3 37017374#0 37017374#1 -308669835#0 -420397514 -35972438#4 -35972438#3 -35972438#2 -35972438#1 360617341#1 360617341#2 360617341#3 531937186#0 531937186#1"/>
    </vehicle>
    <vehicle id="5" depart="0.00">
        <route edges="24652778#0 24652778#1 667195599#0 667195599#1 425647416#0 425647416#1 425647416#2 534433692#0 534433692#1 534433690 534433687 534433680 534433684#0 534433684#1 431722531#0 431722531#1 31016404 24650053 427643915 427643916#0 427643916#1 425391226#0 425391226#1 160695140#4 409673592"/>
    </vehicle>
    <vehicle id="6" depart="0.00">
        <route edges="24360723#0 -420385374#0 424798277#1 431723954#7 431723954#8 770749817 531908097 531908096 538952542 531908095 160695432#0 160695432#1 531908094 531908093 431996150#0 431996150#1 538959951 150316488 150316490#0 150316490#1 531908091 531908090 531908092#0 531908092#1 95606290#0 95606290#1 356481622 24650047#1 538783729 534548508 425389841#0 425389841#1 534548506 107938335#0 107938335#1 107938320#0 107938320#1 107938320#2 534548505 534548504 534548502 431771841#0 160695148"/>
    </vehicle>
    <vehicle id="7" depart="0.00">
        <route edges="291083100#2 150316490#1 531908091 273361171 531898573 531900686 416005328 538952547#0 538952547#1 421491565#0 421491565#1 421491565#2 425391225 531952880 531952879 531952878 531952877 291083095#0 291083095#1 531952876 291083090 531953023 385513376#0"/>
    </vehicle>
    <vehicle id="8" depart="0.00">
        <route edges="370241718#1 531937183#2 531937183#3 431723954#3 24361006#0 24361006#1 24361006#2 531912916 240659577#3 240659577#4 240659577#0 531938898 531938897 531939266 -268437065"/>
    </vehicle>
    <vehicle id="9" depart="0.00">
        <route edges="24361400#1 24361400#2 24361400#3 427843246 85865018#0 85865018#1 85865018#2 85865018#3 85865018#4 85865018#5 160695132 422264046#0 422264046#1 424184690#2"/>
    </vehicle>
    <vehicle id="10" depart="0.00">
        <route edges="24650079 24650081#1 431722531#1 31016404 24650053 427643915 427643918#0 427643918#1 427129776 427125129 428066863#0 428066863#1 428066863#2 427692678#0"/>
    </vehicle>
    <vehicle id="11" depart="0.00">
        <route edges="24611808#1 24360702#4 138055545#1 415999038#1 415999038#2 415999038#3 424184688#0 424184688#1 424184688#2 424184688#3 424184689#0 424184689#1 427691216#0 427691216#1 427691216#2 427691216#3 291083102#3 291083102#4 428066863#1 409673591#1"/>
    </vehicle>
    <vehicle id="12" depart="0.00">
        <route edges="24650049 287902869#0 287902869#1 425391227 425391228 427087977 428066862#0 428066862#1 538784511#0 538784511#1 531952885 531952884 291083101 531952883 531952882 531952881 425391225 531952880 531952879 531952878 531952877 30480344#2 30480344#3 30480344#4 24650041#9"/>
    </vehicle>
    <vehicle id="13" depart="0.00">
        <route edges="89383700#1 422264046#3 24360384 427888491#0 427888491#1 427888491#2 427888491#3 427692680 422268369 532184445 532184444 532184441 532188875 532182103#0 532182103#1 532184761 385513375#0 385513375#1 385513374 291081716#0 291081716#1 24406756#0 24406756#1 532137775#0 532137775#1 426245385#0 426245385#1 426245385#2 424798278 -24419185 -531939267 -531939266 -531938897 -531938898 240659577#1 240659577#2 240659577#3 31268289 420397508 -427909516#1 -427909516#0 427906278#0"/>
    </vehicle>
    <vehicle id="14" depart="0.00">
        <route edges="291263660#1 24361373#0 24360389 425369970#0 425369970#1 425369970#2 424804974#0 24650034 531959844 531959841 420401914 85865018#6 85865018#7 532182104 532184445 532184444 432198818 415999038#0 415999038#1 415999038#2 415999038#3 424184688#0 424184688#1 424184688#2 424184688#3 424184689#0 424184689#1 427691216#0 427691216#1 427691216#2 427691216#3 427691216#4 427691216#5 425382683#1 427125129"/>
    </vehicle>
    <vehicle id="16" depart="0.00">
        <route edges="24650210 24650059#2 24650059#3 432420736#1 409607686 24650046 431718580#0 431718580#1 24650211 420853985 50502913#0 50502913#1 290167854 290167856 150166750 432805066 427129776 427125129 428066863#0 428066863#1 428066863#2 -310525151 422264046#5 539419561#0 539419561#1"/>
    </vehicle>
    <vehicle id="17" depart="0.00">
        <route edges="427643916#0 427643916#1 425391226#0 425391226#1 -173677133 24361400#0 24361400#1 24361400#2 24361400#3 427843247#0 36921441#0 36921441#1"/>
    </vehicle>
    <vehicle id="18" depart="0.00">
        <route edges="540428272 531937184 531937183#0 531937183#1 531937183#2 531937183#3 431723954#3 431723954#4 431723954#5 24360723#0 24360723#1 424183874 424798280#0 424798280#1 424798280#2 420385368#0 420385368#1 532138882 532138881#0 532138881#1 532138880#0 532138880#1 24360571#0 24360571#1"/>
    </vehicle>
    <vehicle id="19" depart="0.00">
        <route edges="-24612002#0 561831375#0 561831375#1 35972437#1 35972437#2 420397515 420397514 308669835#0 308669835#1 423002225 24611821#0 24611821#1 531908093 30480341#1 30480341#2 30480341#3 30480341#4 291083096#0 291083096#1 24360380#0 24360380#1 424184691#0 424184691#1 424184688#2 424184688#3 424184689#0 424184689#1 24611811#0 24611811#1"/>
    </vehicle>
    <vehicle id="20" depart="0.00">
        <route edges="287902869#1 425391226#0 291083102#8 291083102#9 534436815#2 432145967#0 432145967#1 432145967#2 432145967#3 292911530#0 292911530#1 292911530#2 534436797 534436790#0 534436790#1 534436793 534436786 523750725 421924785"/>
    </vehicle>
    <vehicle id="21" depart="0.00">
        <route edges="-531939267 -531939266 -531938897 -531938898 240659577#1 24650024 531912915 531912914 431723954#5 431723954#6 431723954#7 431723954#8 770749817 531908097 420385363#2 24361001#0 24361001#1 24361001#2 24361011#0 24361011#1 -24611997#1"/>
    </vehicle>
    <vehicle id="22" depart="0.00">
        <route edges="24612002#0 -24612002#0 561831375#0 561831375#1 35972437#1 35972437#2 420397515 420397514 308669835#0 308669835#1 423002225 24611821#0 24611821#1 531908093 431996150#0 431996150#1 538959951 150316488 150316490#0 150316490#1 531908091 531908090 531908092#0 531908092#1 95606290#0 95606290#1 356481622 24650047#1 538783729 534548508 425389841#0 425389841#1 534548506 107938335#0 107938335#1 107938320#0 107938320#1 107938320#2 534548505 534548504 534548502 431771841#0 431771841#1 24650081#0 24650081#1 431722531#1 31016404 431722532#0 431722532#1 534433677 534433675 534433671 -71498398#1 -71498398#0 -356064688 -107938398 -420854021#1 -420854021#0 368784885 24360219 -287938198"/>
    </vehicle>
    <vehicle id="23" depart="0.00">
        <route edges="538952543#0 24361001#0 370241718#7 415999040#1 538952545 538952542 531908095 160695432#0 160695432#1 531908094 531908093 30480341#1 30480341#2 30480341#3 30480341#4 291083096#0 291083096#1 24360380#0 24360380#1 424184691#0 424184691#1"/>
    </vehicle>
    <vehicle id="24" depart="0.00">
        <route edges="24360723#0 -420385374#0 424798277#1 431723954#7 24212577#0 24212577#1 532187517 532187512 532187506 385513378#0 385513378#1 385513378#2 385513380 428274872#0"/>
    </vehicle>
    <vehicle id="25" depart="0.00">
        <route edges="24559802#0 24559802#1 287140829#0 287140829#1 302701819 302701816#0 302701816#1 302701816#2 302701816#3 302701816#4 534516108 534433698 534433692#0 534433692#1 534433690 534433687 534433680 534433684#0 534516113 534516112 50502913#1 290167854 290167856 150166750 432805066 427129776 427125129 428066862#0 428066862#1 538784511#0 538784511#1 531952885 531952884 291083101 531952883 531952882 531952881 291083098#0 291083098#1 24650041#5 24650041#6 291083097#5 431996150#1"/>
    </vehicle>
    <vehicle id="26" depart="0.00">
        <route edges="420397509#0 -24617778#0 199287418#1 41374099#1 540428272 531937184 531937183#0 531937183#1 531937183#2 531937183#3 431723954#3 431723954#4 431723954#5 431723954#6 431723954#7 431723954#8 770749817 531908097 531908096 538952542 531908095 160695432#0 160695432#1 531908094 531908093 431996150#0 431996150#1 538959951 150316488 150316490#0 150316490#1 531908091 531908090 531908092#0 531908092#1 95606290#0 95606290#1 356481622 24650047#1 538783729 534548508 425389841#0 425389841#1 534548506 107938335#0 107938335#1 107938320#0 107938320#1 107938320#2 534548505 534548504 534548502 431771841#0 431771841#1 431771841#2 424792137 24650209 534542787 24650210"/>
    </vehicle>
    <vehicle id="27" depart="0.00">
        <route edges="425161060#1 427643918#1 427129776 427125129 428066862#0 428066862#1 538784511#0 538784511#1 531952885 531952884 291083101 531952883 531952882 531952881 291083098#0 291083098#1 291083098#2 416005331#0 416005331#1 416005329#0 416005329#1 416005329#2"/>
    </vehicle>
    <vehicle id="28" depart="0.00">
        <route edges="287140829#0 287140829#1 302701819 302701816#0 302701816#1 302701816#2 302701816#3 302701816#4 534516108 534433698 534433692#0 534433692#1 534433690 534433687 534433680 534433684#0 534516113 534516112 50502913#1 290167854 290167856 150166750 432805066 427129776 427125129 428066862#0 428066862#1 538784511#0 538784511#1 531952885 531952884 291083101 531952883 531952882 531952881 291083098#0 291083098#1 291083098#2 416005331#0 416005331#1 416005329#0 416005329#1 416005329#2 416005329#3 37017374#0 37017374#1 308669837#0"/>
    </vehicle>
    <vehicle id="29" depart="0.00">
        <route edges="173516435 61129785 424798280#1"/>
    </vehicle>
    <vehicle id="30" depart="0.00">
        <route edges="-540428269 -24361012 531935303 531935302 531935301 531935300 531935299 531935297 531935296 -24611999#3 531937186#0 -24612006"/>
    </vehicle>
    <vehicle id="31" depart="0.00">
        <route edges="36921441#0 36921441#1 36921441#2 36921441#3 36921441#4 160695140#3 160695140#4 409673592 425161101 425161060#0 425161060#1 425161053#0 425161053#1 107938353 290167854 432805065 262429743 431766086#0 431766086#1 431766089#0 431766089#1 420861076 150166755 420861082#0 420861082#1 150166760 150166749#0"/>
    </vehicle>
    <vehicle id="32" depart="0.00">
        <route edges="24652211#1 24652207 534527524 121072321#0 362955519#0 362955519#1 547641091 431740482 24652767 431751173 24650943#2 24650943#3 220063159 431768085 431768089#0 431768089#1 431718580#0 431718580#1 24650211 420853985 50502913#0 50502913#1 290167854 290167856 150166750 432805066 427129776 427125129 428066862#0 428066862#1 538784511#0 538784511#1 531952885 531952884 291083101 531952883 531952882 531952881 291083098#0 291083098#1 291083098#2 416005331#0 416005331#1 416005329#0 416005329#1 416005329#2 416005329#3 37017374#0 37017374#1 -308669835#0 -420397514 -35972438#4 -35972438#3 -35972438#2 -35972438#1 360617341#1 360617341#2 360617341#3 -24611999#2 31922086#1"/>
    </vehicle>
    <vehicle id="33" depart="0.00">
        <route edges="424184690#0 427888491#2 427888491#3 427692680 422268369 532184445 532184444 532184441 532188875 532182103#0 532182103#1 532184761 385513375#0 385513375#1 385513374 291081716#0 291081716#1 24406756#0 24406756#1 532137775#0 532137775#1 426245385#0 -24360708 424798280#2 420385368#0 420385368#1 532138882 532138881#0 532138881#1 532138880#0 532138880#1 24360571#0"/>
    </vehicle>
    <vehicle id="34" depart="0.00">
        <route edges="24681474 -24681474 431776018#1 431776018#2 409607687#1 531898575 531898574 31921276 531898573 531900686 416005328 538952547#0 538952547#1 421491565#0 421491565#1 421491565#2 420857020#0 420857020#1 -427692678#1 427691216#2"/>
    </vehicle>
    <vehicle id="36" depart="0.00">
        <route edges="24360386#3 291083094#2 531955429 24360380#0 24360702#2 24360702#3 24360702#4 24360702#5 421565755 291083093#0 291083093#1 36826295#0 36826295#1 415999045 160695432#0 30480344#6 35972439#0 35972439#1 538952543#0"/>
    </vehicle>
    <vehicle id="37" depart="0.00">
        <route edges="427635472#1 24611822#1 24611822#2 415999040#0 415999040#1 538952545 538952544 415999043#0 415999043#1 291083091#0 291083091#1 539191494 421517001 415999034 415999039 425205867#0 425205867#1 425205866#0 425205866#1 427843247#0 427843247#1 534436790#0 534436790#1 534436793 534436786 523750725 421924785"/>
    </vehicle>
    <vehicle id="38" depart="0.00">
        <route edges="427691216#6 427691216#7 534548505 150166750 432805066 427129776 427125129 428066862#0 428066862#1 538784511#0 538784511#1 531952885 531952884 291083101 531952883 531952882 531952881 425391225 531952880 531952879 531952878 531952877 291083095#0 291083095#1 531952876 291083090 531953023 385513374 291081716#0 24360705"/>
    </vehicle>
    <vehicle id="39" depart="0.00">
        <route edges="41374099#1 540428272 531937184 531937183#0 531937183#1 531937183#2 531937183#3 431723954#3 431723954#4 431723954#5 431723954#6 431723954#7 431723954#8 770749817 531908097 531908096 538952544 415999043#0 24360577#0 36826295#1"/>
    </vehicle>
    <vehicle id="40" depart="0.00">
        <route edges="24652213#0 24652213#1 532163450 431914696 363246361 431914698 431949568 415950908#0 415950908#1 427636275#0 427636275#1 427636275#2 427636275#3 421924783#0 421924783#1 523750725 421924785 85865018#0 85865018#1 85865018#2 85865018#3 85865018#4 85865018#5 85865018#6 85865018#7 532182104 532184445 532184444 532184441 532188875 532182103#0 532182103#1 532184761 385513375#0 385513375#1 385513374 291081716#0 291081716#1 24406756#0 24406756#1 532137775#0 532137775#1 426245385#0 426245385#1 426245385#2 424798277#0 424798277#1"/>
    </vehicle>
    <vehicle id="41" depart="0.00">
        <route edges="24672251#4 24652780#2 302701816#0 302701816#1 302701816#2 302701816#3 302701816#4 534516108 534433698 534433692#0 534433692#1 534433690 534433687 534433680 534433684#0 534516113 534516112 50502913#1 290167854 290167856 534548504 534548502 431771841#0 431771841#1 24650081#0"/>
    </vehicle>
    <vehicle id="42" depart="0.00">
        <route edges="220063160#1 432822448 405801542#0 405801542#1 405801542#2 149813030 544765654 24652209 431981410 426387471 368784886 420854023 420854021#0 420854021#1 107938398 356064688 71498398#0 71498398#1 534436815#0 534436815#1 534436815#2 160695140#0 160695140#1 160695140#2 160695140#3 160695140#4 409673591#0 428066863#2 427692678#0 427692678#1 -420857020#1 -420857020#0 291083098#0"/>
    </vehicle>
    <vehicle id="43" depart="0.00">
        <route edges="531935293 420397506#0 420397506#1 420397506#2"/>
    </vehicle>
    <vehicle id="44" depart="0.00">
        <route edges="415953888#1 415953888#2 302701026#0 302701026#1 302701026#2 -409675305 -420854013 24212327 409675303#0 409675303#1 160695140#0 160695140#1 160695140#2 160695140#3 160695140#4 409673591#0 428066863#2 427692678#0 427692678#1 -420857020#1 -420857020#0 291083098#0 291083098#1 291083098#2 416005331#0 416005331#1 416005329#0 416005329#1 416005329#2"/>
    </vehicle>
    <vehicle id="45" depart="0.00">
        <route edges="24212326#0 302701026#2 302701026#3 420854026 302701031 426488275 432420736#0 432420736#1 409607686 24650046 431718580#0 431718580#1 24650211 420853985 50502913#0"/>
    </vehicle>
    <vehicle id="46" depart="0.00">
        <route edges="24212328 302701029#1 302701029#2 107938369#0 107938369#1 292911530#0 292911530#1 292911530#2 534436797 534436790#0 534436790#1 534436793 534436786 523750725 421924785 85865018#0 85865018#1 85865018#2 85865018#3 85865018#4 85865018#5 -420401914 291263660#0"/>
    </vehicle>
    <vehicle id="47" depart="0.00">
        <route edges="426225162#2 426225162#3 63521323#1 24650034 531959844 531959841 420401914 160695132 422264046#0 422264046#1 422264046#2 422264046#3 422264046#4 422264046#5 422264046#6 422264046#7 409673592 425161101 425161060#0 425161060#1 425161053#0 425161053#1 107938353 290167854 432805065 262429743 431766086#0 431766086#1 431766089#0 431766089#1 420861076 150166755 420861082#0 420861082#1 150166760 150166749#0 150166749#1"/>
    </vehicle>
    <vehicle id="48" depart="0.00">
        <route edges="420385362#1 531937183#3 431723954#3 431723954#4 431723954#5 431723954#6 431723954#7 431723954#8 770749817 531908097 531908096 538952542 531908095 160695432#0 160695432#1 531908094 531908093 431996150#0 431996150#1 421491565#0 421491565#1 421491565#2 420857020#0 420857020#1 247705007 531955424 291083099 531955423 531955422 531955421 531955420 531955419 531955418 531955417 531955805 291083103#0 291083103#1 107938333 107938451 431766086#0 431766086#1"/>
    </vehicle>
    <vehicle id="49" depart="0.00">
        <route edges="24419164#0 428048489#2 428048489#3 424798277#0 424798277#1 431723954#7 431723954#8 770749817 531908097 531908096 538952542 531908095 160695432#0 160695432#1 531908094 531908093 431996150#0 431996150#1 538959951 150316488 150316490#0 150316490#1 531908091 531908090 531908092#0 531908092#1 95606290#0 95606290#1 356481622 24650047#1 538783729 534548508 425389841#0 425389841#1 534548506 107938335#0 107938335#1 107938320#0 107938320#1 107938320#2 534548505 534548504 534548502 431771841#0 431771841#1 24650081#0 24650081#1 431722531#1 31016404 431722532#0 431722532#1 534433677 534433675 534433671 -71498398#1 -71498398#0 -356064688 -107938398 -420854021#1 -420854021#0 368784885 24360219 31529455#0 31529455#1 431914698 431949568 415950908#0 415950908#1 427636275#0 427636275#1 368784035 24672255#0"/>
    </vehicle>
    <vehicle id="50" depart="0.00">
        <route edges="431773478 431773479#0 431773479#1 302701817#4 302701817#5 302701817#6 302701817#7 220063159 431768085 431768089#0 431768089#1 431718580#0 431718580#1 24650211 420853985 50502913#0 50502913#1 290167854 290167856 150166750 432805066 427129776 427125129 428066862#0 428066862#1 538784511#0 538784511#1 531952885 531952884 291083101 531952883 531952882 531952881 291083098#0 291083098#1 291083098#2 150316488 150316490#0 150316490#1 531908091 531908090 24611815#0"/>
    </vehicle>
    <vehicle id="51" depart="0.00">
        <route edges="667195599#1 425647416#0 425647416#1 425647416#2 534433692#0 534433692#1 534433690 534433687 534433680 534433684#0 534516113 534516112 50502913#1 290167854 290167856 150166750 432805066 427129776 427125129 428066863#0 428066863#1 428066863#2 427692679#0 427692679#1 427888491#0 427888491#1 427888491#2 427888491#3 427692680 422268369"/>
    </vehicle>
    <vehicle id="52" depart="0.00">
        <route edges="-420397506#2 -420397506#1 531937190 531937189 531937188 531937187 531937186#0 531937186#1 531937185 41374099#0 41374099#1 540428272 531937184 531937183#0 531937183#1 531937183#2 531937183#3 431723954#3 431723954#4 431723954#5 431723954#6 431723954#7 24212577#0 24212577#1 532187517"/>
    </vehicle>
    <vehicle id="53" depart="0.00">
        <route edges="85865018#7 532182104 532184445 532184444 432198818 415999038#0 415999038#1 415999038#2 415999038#3 424184688#0 424184688#1 424184688#2 424184688#3 424184689#0 424184689#1 427691216#0 427691216#1 427691216#2 427691216#3 427691216#4 427691216#5 427691216#6 427691216#7 534548505 534548504 534548502 431771841#0 431771841#1 431771841#2 424792137 24650209 534542787 24650210 24650059#2 24650059#3 432420736#1 409607686 420853979 31246306#0 31246306#1"/>
    </vehicle>
    <vehicle id="54" depart="0.00">
        <route edges="106941334 420861079 432010158 24672252 431751031 534433702 534433698 534433692#0 534433692#1 534433690 534433687 534433680 534433684#0 534433684#1 431722531#0 431722531#1 31016404 431722532#0 431722532#1 534433677 534433675 534433671 -71498398#1 -71498398#0 -356064688 -409675309 409675305"/>
    </vehicle>
    <vehicle id="55" depart="0.00">
        <route edges="150316490#0 150316490#1 531908091 531908090 531908092#0 531908092#1 95606290#0 95606290#1 356481622 24650047#1 538783729 534548508 425389841#0 425389841#1 534548506 107938335#0 107938335#1 107938320#0 107938320#1 107938320#2 534548505 534548504 534548502 431771841#0 431771841#1 431771841#2 24672301 24672302 24672303 24672316#0 24672316#1 24672316#2 24672316#3 24672316#4 534516110 534516109 534516107 534516106 24672251#0 24672251#1 24672251#2 24672251#3 24672251#4 24672251#5 287140829#1"/>
    </vehicle>
    <vehicle id="56" depart="0.00">
        <route edges="291083095#0 36826295#0 36826295#1 415999045 160695432#0 160695432#1 531908094 531908093 431996150#0 431996150#1 538959951 150316488 150316490#0 150316490#1 531908091 531908090 24611815#0 24611815#1 24611815#2 291083101 531952883"/>
    </vehicle>
    <vehicle id="57" depart="0.00">
        <route edges="302701809#0 24652764#1 432793073#1 302701819 302701816#0 302701816#1 302701816#2 302701816#3 302701816#4 534516108 534433698 534433692#0 534433692#1 534433690 534433687 534433680 534433684#0 534516113 534516112 50502913#1 290167854 290167856 150166750 432805066 427129776 427125129 428066862#0 428066862#1 538784511#0 538784511#1 531952885 531952884 291083101 531952883 531952882 531952881 291083098#0 291083098#1 291083098#2 416005331#0 416005331#1 416005329#0 416005329#1 416005329#2 416005329#3 37017374#0 37017374#1 -308669835#0 -420397514 -35972438#4 37315584#6 420397519#0 420397519#1 420397519#2 420397519#3"/>
    </vehicle>
    <vehicle id="58" depart="0.00">
        <route edges="36826295#1 415999044 415999042#0 420385363#0 420385363#1 531908096"/>
    </vehicle>
    <vehicle id="59" depart="0.00">
        <route edges="532184440 532188875 532182103#0 532182103#1 532184761 385513375#0 385513375#1 385513374 291081716#0 291081716#1 24406756#0 24406756#1 532137775#0 532137775#1 426245385#0 426245385#1 426245385#2 424798277#0 24360707#0 24360707#1 173516435"/>
    </vehicle>
    <vehicle id="60" depart="0.00">
        <route edges="415999035#0 415999035#1 24361589#0 24361589#1 426225163#0 426225163#1 426225163#2 532184443 432198818 415999038#0 415999038#1 415999038#2 415999038#3 424184688#0 424184688#1 424184688#2 424184688#3 424184689#0 424184689#1 427691216#0 427691216#1 427691216#2 409673591#2 291083099 531955423 531955422 531955421 531955420 531955419 531955418 531955417 531955805 291083103#0 291083103#1 107938333 107938451 431766086#0 431766086#1 420861084#0 420861084#1 431766093 532133791 24672252"/>
    </vehicle>
    <vehicle id="61" depart="0.00">
        <route edges="415999043#1 291083091#0 291083091#1 422271119 531955431 291083092#0 291083092#1 531955430 291083094#0 291083094#1 291083094#2 531955429 531955428 531955427 247705006 531955426 531955425"/>
    </vehicle>
    <vehicle id="62" depart="0.00">
        <route edges="544765654 24652209 431981410 426387471 368784886 420854023 420854021#0 420854021#1 107938398 356064688 71498398#0 71498398#1 534436815#0 534436815#1 534436815#2 160695140#0 160695140#1 160695140#2 160695140#3 160695140#4 409673591#0 409673591#1 427691216#3 291083102#3 291083102#4"/>
    </vehicle>
    <vehicle id="63" depart="0.00">
        <route edges="24360386#3 291083094#2 531955429 531955428 531955427 247705006 531955426 531955425 247705007 531955424 291083099 531955423 291083102#2 291083102#3 291083102#4"/>
    </vehicle>
    <vehicle id="64" depart="0.00">
        <route edges="24360707#1 173516435 426245385#2 424798277#0 424798277#1 431723954#7 431723954#8 770749817 531908097 420385363#2 24361001#0 370241718#7"/>
    </vehicle>
    <vehicle id="65" depart="0.00">
        <route edges="24650052#1 24650040#6 24650040#7 534548508 425389841#0 425389841#1 534548506 107938335#0 107938335#1 107938320#0 107938320#1 107938320#2 534548505 534548504 534548502 431771841#0 431771841#1 24650081#0 24650081#1 431722531#1 31016404 431722532#0 431722532#1 534433677 534433675 534433671 -71498398#1 -71498398#0 238009794#0 238009794#1"/>
    </vehicle>
    <vehicle id="66" depart="0.00">
        <route edges="431976822#1 431976822#2 287140829#0 287140829#1 302701819 302701816#0 302701816#1 302701816#2 302701816#3 302701816#4 534516108 534433698 534433692#0 534433692#1 534433690 534433687 534433680 534433684#0 534516113 534516112 50502913#1 290167854 290167856 150166750 432805066 427129776 427125129 428066862#0 428066862#1 538784511#0 538784511#1 531952885 531952884 291083101 531952883 531952882 531952881 425391225 531952880 531952879 531952878 531952877 291083095#0 36826295#0 36826295#1 415999044"/>
    </vehicle>
    <vehicle id="67" depart="0.00">
        <route edges="63521323#1 24650034 531959844 531959841 420401914 160695132 425205867#1 425205866#0 425205866#1 427843247#0 36921441#0 36921441#1 36921441#2 36921441#3 36921441#4 36921441#5 291083102#9 534436815#2 432145967#0 432145967#1 432145967#2 432145967#3 -107938369#1 -107938369#0 534510817#0 534510817#1 534510817#2 534510810 24212326#0 24212326#1"/>
    </vehicle>
    <vehicle id="68" depart="0.00">
        <route edges="308669836 423040067 423032020#0 423032020#1 538952547#0 538952547#1 421491565#0 421491565#1 421491565#2 425391225 531952880 531952879 531952878 531952877 291083095#0 291083095#1 531952876 291083090 531953023 385513374 291081716#0 291081716#1 24406756#0 24406756#1 532137775#0 532137775#1 426245385#0 -24360708 424798280#2 420385368#0 420385368#1 532138882 532138881#0 532138881#1 532138880#0 532138880#1 24360571#0 428274872#1"/>
    </vehicle>
    <vehicle id="69" depart="0.00">
        <route edges="534510824 534510817#0 534510817#1 534510817#2"/>
    </vehicle>
    <vehicle id="70" depart="0.00">
        <route edges="24360220#0 24360220#1 24360220#2 24360220#3 24360220#4 415953888#0 415953888#1 415953888#2 302701026#0 302701026#1 302701026#2 -409675305 -420854013 24212327 409675303#0 409675303#1 160695140#0 160695140#1 160695140#2 160695140#3 160695140#4 409673591#0 409673591#1"/>
    </vehicle>
    <vehicle id="71" depart="0.00">
        <route edges="150166749#0 150166749#1 150166749#2 150166749#3 150166749#4 107938331 107938380#0 107938380#1 107938380#2 291083105 531952886 531952885 531952884 291083101 531952883 531952882 531952881 291083098#0 291083098#1 291083098#2 416005331#0 416005331#1 416005329#0 416005329#1 416005329#2 416005329#3 558053804 416005326 24650942#0 24650942#1 -24650942#1"/>
    </vehicle>
    <vehicle id="72" depart="0.00">
        <route edges="368784885 24360219 -287938198 -409675305 -420854013 24212327 409675303#0 409675303#1 160695140#0 160695140#1 160695140#2 160695140#3 160695140#4 409673591#0 409673591#1 409673591#2 291083099 531955423 531955422"/>
    </vehicle>
    <vehicle id="73" depart="0.00">
        <route edges="420853985 50502913#0 50502913#1 290167854 290167856 150166750 432805066 427129776 427125129 428066862#0 428066862#1 538784511#0 538784511#1 531952885 531952884 291083101 531952883 531952882 531952881 425391225 531952880 531952879 531952878 531952877 291083095#0 291083095#1 531952876 291083090 531953023 385513376#0 385513376#1 385513376#2 385513376#3 431946930"/>
    </vehicle>
    <vehicle id="74" depart="0.00">