<?xml version="1.0" encoding="UTF-8"?>
<!-- generated on 2020-05-22 23:37:08.652428 by randomTrips.py UNKNOWN
  options: -n erlangen.net.xml -r erlangen.rou.xml -e 140 -l
-->
<routes xmlns:xsi="http://www.w3.org/2001/XMLSchema-instance" xsi:noNamespaceSchemaLocation="http://sumo.dlr.de/xsd/routes_file.xsd">
    <trip id="0" depart="0.00" from="24652764#3" to="424798280#1"/>
    <trip id="1" depart="1.00" from="291083105" to="425369970#0"/>
    <trip id="2" depart="2.00" from="431949568" to="24360576"/>
    <trip id="3" depart="3.00" from="290167854" to="31529455#1"/>
    <trip id="4" depart="4.00" from="24652778#1" to="531937186#1"/>
    <trip id="5" depart="5.00" from="24652778#0" to="409673592"/>
    <trip id="6" depart="6.00" from="24360723#0" to="160695148"/>
    <trip id="7" depart="7.00" from="291083100#2" to="385513376#0"/>
    <trip id="8" depart="8.00" from="370241718#1" to="-268437065"/>
    <trip id="9" depart="9.00" from="24361400#1" to="424184690#2"/>
    <trip id="10" depart="10.00" from="24650079" to="427692678#0"/>
    <trip id="11" depart="11.00" from="24611808#1" to="409673591#1"/>
    <trip id="12" depart="12.00" from="24650049" to="24650041#9"/>
    <trip id="13" depart="13.00" from="89383700#1" to="427906278#0"/>
    <trip id="14" depart="14.00" from="291263660#1" to="427125129"/>
    <trip id="15" depart="15.00" from="85865012#0" to="531938898"/>
    <trip id="16" depart="16.00" from="24650210" to="539419561#1"/>
    <trip id="17" depart="17.00" from="427643916#0" to="36921441#1"/>
    <trip id="18" depart="18.00" from="540428272" to="24360571#1"/>
    <trip id="19" depart="19.00" from="-24612002#0" to="24611811#1"/>
    <trip id="20" depart="20.00" from="287902869#1" to="421924785"/>
    <trip id="21" depart="21.00" from="-531939267" to="-24611997#1"/>
    <trip id="22" depart="22.00" from="24612002#0" to="-287938198"/>
    <trip id="23" depart="23.00" from="538952543#0" to="424184691#1"/>
    <trip id="24" depart="24.00" from="24360723#0" to="428274872#0"/>
    <trip id="25" depart="25.00" from="24559802#0" to="431996150#1"/>
    <trip id="26" depart="26.00" from="420397509#0" to="24650210"/>
    <trip id="27" depart="27.00" from="425161060#1" to="416005329#2"/>
    <trip id="28" depart="28.00" from="287140829#0" to="308669837#0"/>
    <trip id="29" depart="29.00" from="173516435" to="424798280#1"/>
    <trip id="30" depart="30.00" from="-540428269" to="-24612006"/>
    <trip id="31" depart="31.00" from="36921441#0" to="150166749#0"/>
    <trip id="32" depart="32.00" from="24652211#1" to="31922086#1"/>
    <trip id="33" depart="33.00" from="424184690#0" to="24360571#0"/>
    <trip id="34" depart="34.00" from="24681474" to="427691216#2"/>
    <trip id="35" depart="35.00" from="-561831375#0" to="31527988"/>
    <trip id="36" depart="36.00" from="24360386#3" to="538952543#0"/>
    <trip id="37" depart="37.00" from="427635472#1" to="421924785"/>
    <trip id="38" depart="38.00" from="427691216#6" to="24360705"/>
    <trip id="39" depart="39.00" from="41374099#1" to="36826295#1"/>
    <trip id="40" depart="40.00" from="24652213#0" to="424798277#1"/>
    <trip id="41" depart="41.00" from="24672251#4" to="24650081#0"/>
    <trip id="42" depart="42.00" from="220063160#1" to="291083098#0"/>
    <trip id="43" depart="43.00" from="531935293" to="420397506#2"/>
    <trip id="44" depart="44.00" from="415953888#1" to="416005329#2"/>
    <trip id="45" depart="45.00" from="24212326#0" to="50502913#0"/>
    <trip id="46" depart="46.00" from="24212328" to="291263660#0"/>
    <trip id="47" depart="47.00" from="426225162#2" to="150166749#1"/>
    <trip id="48" depart="48.00" from="420385362#1" to="431766086#1"/>
    <trip id="49" depart="49.00" from="24419164#0" to="24672255#0"/>
    <trip id="50" depart="50.00" from="431773478" to="24611815#0"/>
    <trip id="51" depart="51.00" from="667195599#1" to="422268369"/>
    <trip id="52" depart="52.00" from="-420397506#2" to="532187517"/>
    <trip id="53" depart="53.00" from="85865018#7" to="31246306#1"/>
    <trip id="54" depart="54.00" from="106941334" to="409675305"/>
    <trip id="55" depart="55.00" from="150316490#0" to="287140829#1"/>
    <trip id="56" depart="56.00" from="291083095#0" to="531952883"/>
    <trip id="57" depart="57.00" from="302701809#0" to="420397519#3"/>
    <trip id="58" depart="58.00" from="36826295#1" to="531908096"/>
    <trip id="59" depart="59.00" from="532184440" to="173516435"/>
    <trip id="60" depart="60.00" from="415999035#0" to="24672252"/>
    <trip id="61" depart="61.00" from="415999043#1" to="531955425"/>
    <trip id="62" depart="62.00" from="544765654" to="291083102#4"/>
    <trip id="63" depart="63.00" from="24360386#3" to="291083102#4"/>
    <trip id="64" depart="64.00" from="24360707#1" to="370241718#7"/>
    <trip id="65" depart="65.00" from="24650052#1" to="238009794#1"/>
    <trip id="66" depart="66.00" from="431976822#1" to="415999044"/>
    <trip id="67" depart="67.00" from="63521323#1" to="24212326#1"/>
    <trip id="68" depart="68.00" from="308669836" to="428274872#1"/>
    <trip id="69" depart="69.00" from="534510824" to="534510817#2"/>
    <trip id="70" depart="70.00" from="24360220#0" to="409673591#1"/>
    <trip id="71" depart="71.00" from="150166749#0" to="-24650942#1"/>
    <trip id="72" depart="72.00" from="368784885" to="531955422"/>
    <trip id="73" depart="73.00" from="420853985" to="431946930"/>
    <trip id="74" depart="74.00" from="24361001#2" to="534527524"/>
    <trip id="75" depart="75.00" from="-24211848#3" to="-149787545"/>
    <trip id="76" depart="76.00" from="428274872#0" to="-268437065"/>
    <trip id="77" depart="77.00" from="24361011#1" to="360617341#2"/>
    <trip id="78" depart="78.00" from="422271119" to="428066862#0"/>
    <trip id="79" depart="79.00" from="420385374#2" to="24611824#5"/>
    <trip id="80" depart="80.00" from="-35972438#2" to="173516435"/>
    <trip id="81" depart="81.00" from="128476488#1" to="255733601"/>
    <trip id="82" depart="82.00" from="35972437#0" to="425205866#1"/>
    <trip id="83" depart="83.00" from="24361580" to="287938198"/>
    <trip id="84" depart="84.00" from="427691216#0" to="531898574"/>
    <trip id="85" depart="85.00" from="24360220#4" to="-24612003#0"/>
    <trip id="86" depart="86.00" from="24652759#2" to="420397508"/>
    <trip id="87" depart="87.00" from="24650041#2" to="420397514"/>
    <trip id="88" depart="88.00" from="432145967#1" to="667195599#5"/>
    <trip id="89" depart="89.00" from="531937183#3" to="427635472#0"/>
    <trip id="90" depart="90.00" from="431770506" to="427843247#0"/>
    <trip id="91" depart="91.00" from="24652764#0" to="31527988"/>
    <trip id="92" depart="92.00" from="36921441#1" to="24559802#3"/>
    <trip id="93" depart="93.00" from="-24611997#1" to="421491565#0"/>
    <trip id="94" depart="94.00" from="24650050#2" to="287140829#0"/>
    <trip id="95" depart="95.00" from="431740484" to="291083102#3"/>
    <trip id="96" depart="96.00" from="36921441#0" to="24650050#2"/>
    <trip id="97" depart="97.00" from="385513376#1" to="24559926"/>
    <trip id="98" depart="98.00" from="420397513#1" to="427635472#1"/>
    <trip id="99" depart="99.00" from="291081716#0" to="-409675309"/>
    <trip id="100" depart="100.00" from="24650052#2" to="128476620#1"/>
    <trip id="101" depart="101.00" from="24559890#1" to="-24419164#0"/>
    <trip id="102" depart="102.00" from="-356064695#2" to="95606290#0"/>
    <trip id="103" depart="103.00" from="531935297" to="431976822#1"/>
    <trip id="104" depart="104.00" from="431762830" to="24360380#0"/>
    <trip id="105" depart="105.00" from="428048489#2" to="421491565#1"/>
    <trip id="106" depart="106.00" from="370241718#7" to="24650055"/>
    <trip id="107" depart="107.00" from="302701026#3" to="-370241715"/>
    <trip id="108" depart="108.00" from="431946930" to="302701029#0"/>
    <trip id="109" depart="109.00" from="420385363#1" to="-35972438#2"/>
    <trip id="110" depart="110.00" from="427888490" to="24559802#1"/>
    <trip id="111" depart="111.00" from="531955418" to="37315584#1"/>
    <trip id="112" depart="112.00" from="415999042#1" to="37315584#4"/>
    <trip id="113" depart="113.00" from="291083095#1" to="24611998#2"/>
    <trip id="114" depart="114.00" from="432805065" to="422264046#4"/>
    <trip id="115" depart="115.00" from="540363260#0" to="-24211848#0"/>
    <trip id="116" depart="116.00" from="24652768#1" to="24360454#2"/>
    <trip id="117" depart="117.00" from="421491565#2" to="302701029#2"/>
    <trip id="118" depart="118.00" from="534433684#0" to="31236598"/>
    <trip id="119" depart="119.00" from="415999038#2" to="24611820"/>
    <trip id="120" depart="120.00" from="431768087#3" to="531955427"/>
    <trip id="121" depart="121.00" from="24212577#0" to="427635471#1"/>
    <trip id="122" depart="122.00" from="24672303" to="35972438#4"/>
    <trip id="123" depart="123.00" from="424183875#0" to="199287420#0"/>
    <trip id="124" depart="124.00" from="24360386#1" to="370241718#7"/>
    <trip id="125" depart="125.00" from="36921439" to="421491565#0"/>
    <trip id="126" depart="126.00" from="85865018#7" to="-63521323#1"/>
    <trip id="127" depart="127.00" from="107938398" to="150166771#1"/>
    <trip id="128" depart="128.00" from="291081710#0" to="424798280#0"/>
    <trip id="129" depart="129.00" from="422264046#3" to="291083104#1"/>
    <trip id="130" depart="130.00" from="415999041#7" to="291083098#1"/>
    <trip id="131" depart="131.00" from="150316498#1" to="431768085"/>
    <trip id="132" depart="132.00" from="24681474" to="24361011#0"/>
    <trip id="133" depart="133.00" from="30480341#1" to="427692679#1"/>
    <trip id="134" depart="134.00" from="431768087#3" to="415999042#1"/>
    <trip id="135" depart="135.00" from="24666196#1" to="291081710#0"/>
    <trip id="136" depart="136.00" from="428274872#0" to="37315584#1"/>
    <trip id="137" depart="137.00" from="432198819" to="363221375"/>
    <trip id="138" depart="138.00" from="415999042#0" to="431723954#3"/>
    <trip id="139" depart="139.00" from="24611808#2" to="421616332#3"/>
</routes>
