<?xml version="1.0" encoding="UTF-8"?>
<!-- generated on 2020-05-22 02:26:38.731685 by randomTrips.py UNKNOWN
  options: -n erlangen.net.xml -r erlangen.rou.xml -e 140 -l
-->
<routes xmlns:xsi="http://www.w3.org/2001/XMLSchema-instance" xsi:noNamespaceSchemaLocation="http://sumo.dlr.de/xsd/routes_file.xsd">
    <trip id="0" depart="0.00" from="531937186#1" to="-427692678#1"/>
    <trip id="1" depart="1.00" from="427129777#1" to="37017374#1"/>
    <trip id="2" depart="2.00" from="531937186#1" to="-426166042"/>
    <trip id="3" depart="3.00" from="431771498#0" to="389775709"/>
    <trip id="4" depart="4.00" from="420385363#0" to="35972439#0"/>
    <trip id="5" depart="5.00" from="431773478" to="424804974#3"/>
    <trip id="6" depart="6.00" from="532187512" to="532187512"/>
    <trip id="7" depart="7.00" from="532184442" to="427888490"/>
    <trip id="8" depart="8.00" from="-531939266" to="24361011#3"/>
    <trip id="9" depart="9.00" from="31245585#0" to="24419164#0"/>
    <trip id="10" depart="10.00" from="24360386#0" to="420853981"/>
    <trip id="11" depart="11.00" from="421924785" to="431770506"/>
    <trip id="12" depart="12.00" from="24611822#0" to="291083102#8"/>
    <trip id="13" depart="13.00" from="425357175#1" to="24650041#2"/>
    <trip id="14" depart="14.00" from="-531959844" to="308669835#0"/>
    <trip id="15" depart="15.00" from="667195599#4" to="431981409"/>
    <trip id="16" depart="16.00" from="287938197" to="428274872#0"/>
    <trip id="17" depart="17.00" from="534436815#1" to="532188875"/>
    <trip id="18" depart="18.00" from="-31268070" to="-24360389"/>
    <trip id="19" depart="19.00" from="150316498#0" to="291083102#9"/>
    <trip id="20" depart="20.00" from="421517001" to="421924777#2"/>
    <trip id="21" depart="21.00" from="427643915" to="24419172"/>
    <trip id="22" depart="22.00" from="247705006" to="415999038#3"/>
    <trip id="23" depart="23.00" from="24650057#0" to="24650943#2"/>
    <trip id="24" depart="24.00" from="24650066" to="291083097#5"/>
    <trip id="25" depart="25.00" from="-427692678#1" to="385513376#0"/>
    <trip id="26" depart="26.00" from="24650041#1" to="534433692#0"/>
    <trip id="27" depart="27.00" from="106941334" to="662507857"/>
    <trip id="28" depart="28.00" from="24650040#5" to="360617341#0"/>
    <trip id="29" depart="29.00" from="24212326#0" to="425161060#0"/>
    <trip id="30" depart="30.00" from="531955418" to="427125129"/>
    <trip id="31" depart="31.00" from="268437065" to="291083090"/>
    <trip id="32" depart="32.00" from="425391226#1" to="532188879"/>
    <trip id="33" depart="33.00" from="24360454#1" to="416013014#2"/>
    <trip id="34" depart="34.00" from="31921706#3" to="428274872#1"/>
    <trip id="35" depart="35.00" from="24650041#6" to="652135081"/>
    <trip id="36" depart="36.00" from="421491565#0" to="-427692678#0"/>
    <trip id="37" depart="37.00" from="-420397514" to="291083103#0"/>
    <trip id="38" depart="38.00" from="24360702#5" to="24650040#5"/>
    <trip id="39" depart="39.00" from="424184690#3" to="531952878"/>
    <trip id="40" depart="40.00" from="531908096" to="24652222"/>
    <trip id="41" depart="41.00" from="415999035#4" to="421557988#0"/>
    <trip id="42" depart="42.00" from="24652207" to="302701028"/>
    <trip id="43" depart="43.00" from="37017374#1" to="368784885"/>
    <trip id="44" depart="44.00" from="426225160#2" to="426468658"/>
    <trip id="45" depart="45.00" from="426166042" to="662507857"/>
    <trip id="46" depart="46.00" from="24672255#0" to="416013014#0"/>
    <trip id="47" depart="47.00" from="106941334" to="425195363"/>
    <trip id="48" depart="48.00" from="-426166042" to="531937183#0"/>
    <trip id="49" depart="49.00" from="428274872#1" to="24612002#0"/>
    <trip id="50" depart="50.00" from="427691216#2" to="24666196#2"/>
    <trip id="51" depart="51.00" from="-35972438#4" to="531908096"/>
    <trip id="52" depart="52.00" from="308669838" to="-24611997#1"/>
    <trip id="53" depart="53.00" from="24611808#1" to="531935304#1"/>
    <trip id="54" depart="54.00" from="420854026" to="24360454#3"/>
    <trip id="55" depart="55.00" from="61129783" to="308669837#0"/>
    <trip id="56" depart="56.00" from="24360220#0" to="420385362#0"/>
    <trip id="57" depart="57.00" from="-310525151" to="431751173"/>
    <trip id="58" depart="58.00" from="427643916#1" to="24361582"/>
    <trip id="59" depart="59.00" from="24611821#0" to="431768088#1"/>
    <trip id="60" depart="60.00" from="415999038#0" to="427888491#0"/>
    <trip id="61" depart="61.00" from="425426453#0" to="24360220#1"/>
    <trip id="62" depart="62.00" from="431768087#4" to="24360380#0"/>
    <trip id="63" depart="63.00" from="50502934" to="24611815#2"/>
    <trip id="64" depart="64.00" from="431768088#7" to="370241718#0"/>
    <trip id="65" depart="65.00" from="534510824" to="427691216#5"/>
    <trip id="66" depart="66.00" from="420397517#1" to="24652207"/>
    <trip id="67" depart="67.00" from="424804974#1" to="24212326#2"/>
    <trip id="68" depart="68.00" from="240659577#0" to="-426166042"/>
    <trip id="69" depart="69.00" from="24361400#1" to="36921439"/>
    <trip id="70" depart="70.00" from="24672324" to="531952882"/>
    <trip id="71" depart="71.00" from="426225162#3" to="291083104#0"/>
    <trip id="72" depart="72.00" from="431770506" to="24361001#0"/>
    <trip id="73" depart="73.00" from="24650052#1" to="425426453#1"/>
    <trip id="74" depart="74.00" from="425205867#1" to="-301808439"/>
    <trip id="75" depart="75.00" from="-31922086#1" to="532187512"/>
    <trip id="76" depart="76.00" from="428274872#0" to="24611820"/>
    <trip id="77" depart="77.00" from="24360226" to="24652759#3"/>
    <trip id="78" depart="78.00" from="426225160#2" to="431770506"/>
    <trip id="79" depart="79.00" from="-420385374#1" to="24652222"/>
    <trip id="80" depart="80.00" from="30480341#1" to="409673591#0"/>
    <trip id="81" depart="81.00" from="302701031" to="89383700#1"/>
    <trip id="82" depart="82.00" from="667195599#4" to="-31922086#1"/>
    <trip id="83" depart="83.00" from="-24611997#1" to="425195365"/>
    <trip id="84" depart="84.00" from="24360380#0" to="428066862#1"/>
    <trip id="85" depart="85.00" from="31246306#0" to="24650052#1"/>
    <trip id="86" depart="86.00" from="385513380" to="427843247#1"/>
    <trip id="87" depart="87.00" from="532188875" to="24611822#1"/>
    <trip id="88" depart="88.00" from="24360386#2" to="421617168"/>
    <trip id="89" depart="89.00" from="-24611998#2" to="425195366"/>
    <trip id="90" depart="90.00" from="24652772" to="420397506#2"/>
    <trip id="91" depart="91.00" from="36921441#8" to="24360380#0"/>
    <trip id="92" depart="92.00" from="432786979" to="128476620#1"/>
    <trip id="93" depart="93.00" from="31143623#1" to="24419172"/>
    <trip id="94" depart="94.00" from="24361011#0" to="31236598"/>
    <trip id="95" depart="95.00" from="36826295#1" to="291081716#0"/>
    <trip id="96" depart="96.00" from="415999042#0" to="432805065"/>
    <trip id="97" depart="97.00" from="-24212573" to="-24612006"/>
    <trip id="98" depart="98.00" from="199287418#0" to="24650059#0"/>
    <trip id="99" depart="99.00" from="431762830" to="427635472#1"/>
    <trip id="100" depart="100.00" from="35972438#2" to="-510873600"/>
    <trip id="101" depart="101.00" from="409673592" to="360617341#0"/>
    <trip id="102" depart="102.00" from="428274872#0" to="415999035#0"/>
    <trip id="103" depart="103.00" from="427692678#0" to="427843247#1"/>
    <trip id="104" depart="104.00" from="-531938898" to="24419172"/>
    <trip id="105" depart="105.00" from="302701809#0" to="24360385"/>
    <trip id="106" depart="106.00" from="24650050#3" to="420397520"/>
    <trip id="107" depart="107.00" from="-301810317#1" to="24672251#1"/>
    <trip id="108" depart="108.00" from="89383700#2" to="662507857"/>
    <trip id="109" depart="109.00" from="24650045#1" to="71839143"/>
    <trip id="110" depart="110.00" from="415999038#2" to="431768085"/>
    <trip id="111" depart="111.00" from="-24652227" to="547641091"/>
    <trip id="112" depart="112.00" from="427125129" to="424792137"/>
    <trip id="113" depart="113.00" from="432145967#3" to="150166749#3"/>
    <trip id="114" depart="114.00" from="24211848#0" to="662507857"/>
    <trip id="115" depart="115.00" from="424798277#0" to="421617168"/>
    <trip id="116" depart="116.00" from="531935302" to="150166749#0"/>
    <trip id="117" depart="117.00" from="291083097#5" to="534510824"/>
    <trip id="118" depart="118.00" from="291083104#2" to="291083097#2"/>
    <trip id="119" depart="119.00" from="302701817#4" to="561831375#1"/>
    <trip id="120" depart="120.00" from="24611811#0" to="420861079"/>
    <trip id="121" depart="121.00" from="24672301" to="24650052#1"/>
    <trip id="122" depart="122.00" from="36826295#1" to="61129783"/>
    <trip id="123" depart="123.00" from="-420385374#2" to="24652778#1"/>
    <trip id="124" depart="124.00" from="-31245585#1" to="-24681474"/>
    <trip id="125" depart="125.00" from="-24211848#2" to="431768087#3"/>
    <trip id="126" depart="126.00" from="532184441" to="427635471#1"/>
    <trip id="127" depart="127.00" from="532138880#0" to="291083104#0"/>
    <trip id="128" depart="128.00" from="-652135081" to="24666196#2"/>
    <trip id="129" depart="129.00" from="24611808#2" to="534436815#1"/>
    <trip id="130" depart="130.00" from="-128476620#1" to="240659577#3"/>
    <trip id="131" depart="131.00" from="24360220#0" to="24650052#0"/>
    <trip id="132" depart="132.00" from="24681474" to="425161053#0"/>
    <trip id="133" depart="133.00" from="544765654" to="427691216#6"/>
    <trip id="134" depart="134.00" from="425369970#1" to="150316498#0"/>
    <trip id="135" depart="135.00" from="107938398" to="426166044"/>
    <trip id="136" depart="136.00" from="31245585#1" to="432198810#1"/>
    <trip id="137" depart="137.00" from="424798277#1" to="24360219"/>
    <trip id="138" depart="138.00" from="302701026#3" to="425195362"/>
    <trip id="139" depart="139.00" from="24650211" to="425357175#2"/>
</routes>
