<?xml version="1.0" encoding="UTF-8"?>
<!-- generated on 2020-05-22 02:25:09.793577 by randomTrips.py UNKNOWN
  options: -n erlangen.net.xml -r erlangen.rou.xml -e 140 -l
-->
<routes xmlns:xsi="http://www.w3.org/2001/XMLSchema-instance" xsi:noNamespaceSchemaLocation="http://sumo.dlr.de/xsd/routes_file.xsd">
    <trip id="0" depart="0.00" from="415999041#0" to="24211848#3"/>
    <trip id="1" depart="1.00" from="36921441#7" to="24360454#3"/>
    <trip id="2" depart="2.00" from="531902813" to="30480341#1"/>
    <trip id="3" depart="3.00" from="415953888#1" to="24360389"/>
    <trip id="4" depart="4.00" from="30480344#5" to="24212324"/>
    <trip id="5" depart="5.00" from="24212328" to="370241718#10"/>
    <trip id="6" depart="6.00" from="24361006#0" to="534510803#1"/>
    <trip id="7" depart="7.00" from="-287938198" to="431976822#2"/>
    <trip id="8" depart="8.00" from="425195362" to="107938376#0"/>
    <trip id="9" depart="9.00" from="667191401#0" to="409607686"/>
    <trip id="10" depart="10.00" from="24650052#2" to="428066863#0"/>
    <trip id="11" depart="11.00" from="531935292" to="425205867#0"/>
    <trip id="12" depart="12.00" from="37315584#6" to="24650052#2"/>
    <trip id="13" depart="13.00" from="424798277#1" to="291083105"/>
    <trip id="14" depart="14.00" from="89383700#2" to="538952543#1"/>
    <trip id="15" depart="15.00" from="534433680" to="24559802#2"/>
    <trip id="16" depart="16.00" from="432793073#0" to="287140829#1"/>
    <trip id="17" depart="17.00" from="31143623#0" to="291081716#1"/>
    <trip id="18" depart="18.00" from="24360723#0" to="422264046#2"/>
    <trip id="19" depart="19.00" from="89383700#2" to="431766086#1"/>
    <trip id="20" depart="20.00" from="421491565#2" to="421491565#1"/>
    <trip id="21" depart="21.00" from="89383700#1" to="431769275"/>
    <trip id="22" depart="22.00" from="24650209" to="24650041#0"/>
    <trip id="23" depart="23.00" from="420861076" to="424798280#2"/>
    <trip id="24" depart="24.00" from="420397513#1" to="-510873600"/>
    <trip id="25" depart="25.00" from="424804974#2" to="415999039"/>
    <trip id="26" depart="26.00" from="-531938898" to="532187512"/>
    <trip id="27" depart="27.00" from="431722532#0" to="31280190"/>
    <trip id="28" depart="28.00" from="24650079" to="24559802#5"/>
    <trip id="29" depart="29.00" from="409607686" to="389775709"/>
    <trip id="30" depart="30.00" from="531937186#1" to="-310525151"/>
    <trip id="31" depart="31.00" from="24672316#3" to="121072321#1"/>
    <trip id="32" depart="32.00" from="424184688#1" to="431768088#0"/>
    <trip id="33" depart="33.00" from="24650044#2" to="-268437065"/>
    <trip id="34" depart="34.00" from="424798277#1" to="36921441#4"/>
    <trip id="35" depart="35.00" from="531952885" to="415999041#7"/>
    <trip id="36" depart="36.00" from="-421617168" to="534433671"/>
    <trip id="37" depart="37.00" from="36921441#4" to="415999043#1"/>
    <trip id="38" depart="38.00" from="24559802#5" to="291081716#1"/>
    <trip id="39" depart="39.00" from="255733601" to="24211848#2"/>
    <trip id="40" depart="40.00" from="422264046#3" to="36921441#4"/>
    <trip id="41" depart="41.00" from="534548505" to="24650041#9"/>
    <trip id="42" depart="42.00" from="531912914" to="31143623#0"/>
    <trip id="43" depart="43.00" from="24672302" to="420861081"/>
    <trip id="44" depart="44.00" from="291081716#0" to="427843247#1"/>
    <trip id="45" depart="45.00" from="427888490" to="667195599#1"/>
    <trip id="46" depart="46.00" from="71839143" to="24612006"/>
    <trip id="47" depart="47.00" from="24360702#0" to="308669837#0"/>
    <trip id="48" depart="48.00" from="538952544" to="415999045"/>
    <trip id="49" depart="49.00" from="24650052#2" to="424804974#4"/>
    <trip id="50" depart="50.00" from="424184690#0" to="370241718#1"/>
    <trip id="51" depart="51.00" from="31922086#0" to="531937183#0"/>
    <trip id="52" depart="52.00" from="24672270" to="531959841"/>
    <trip id="53" depart="53.00" from="360617341#2" to="415999041#8"/>
    <trip id="54" depart="54.00" from="534436790#1" to="431768088#4"/>
    <trip id="55" depart="55.00" from="422264046#0" to="534516112"/>
    <trip id="56" depart="56.00" from="534516114#1" to="160695132"/>
    <trip id="57" depart="57.00" from="-24611999#2" to="-427692678#0"/>
    <trip id="58" depart="58.00" from="302701026#3" to="24360702#4"/>
    <trip id="59" depart="59.00" from="-24612004" to="420397519#2"/>
    <trip id="60" depart="60.00" from="428048489#2" to="431975590"/>
    <trip id="61" depart="61.00" from="128476488#1" to="138055545#1"/>
    <trip id="62" depart="62.00" from="287902869#0" to="420385363#0"/>
    <trip id="63" depart="63.00" from="534510824" to="427129777#2"/>
    <trip id="64" depart="64.00" from="667195599#4" to="302701809#1"/>
    <trip id="65" depart="65.00" from="531952884" to="431769275"/>
    <trip id="66" depart="66.00" from="428274872#0" to="302701816#0"/>
    <trip id="67" depart="67.00" from="424183875#0" to="61129783"/>
    <trip id="68" depart="68.00" from="420853981" to="30480341#1"/>
    <trip id="69" depart="69.00" from="302701816#3" to="31143623#1"/>
    <trip id="70" depart="70.00" from="-24681474" to="24212573"/>
    <trip id="71" depart="71.00" from="424798277#0" to="531902814"/>
    <trip id="72" depart="72.00" from="370241718#8" to="24361011#3"/>
    <trip id="73" depart="73.00" from="24212577#1" to="422264046#0"/>
    <trip id="74" depart="74.00" from="89383700#0" to="-426166042"/>
    <trip id="75" depart="75.00" from="431771840" to="415999041#0"/>
    <trip id="76" depart="76.00" from="532139226" to="308669835#0"/>
    <trip id="77" depart="77.00" from="389775709" to="31268289"/>
    <trip id="78" depart="78.00" from="24360711" to="24360226"/>
    <trip id="79" depart="79.00" from="-24419172" to="431737436"/>
    <trip id="80" depart="80.00" from="121072321#1" to="432198818"/>
    <trip id="81" depart="81.00" from="24652780#0" to="24611995#1"/>
    <trip id="82" depart="82.00" from="95606290#0" to="531908090"/>
    <trip id="83" depart="83.00" from="427125130" to="24652767"/>
    <trip id="84" depart="84.00" from="531937185" to="310525155"/>
    <trip id="85" depart="85.00" from="24360382#0" to="428274872#0"/>
    <trip id="86" depart="86.00" from="31245582" to="531904593"/>
    <trip id="87" depart="87.00" from="426166042" to="24650942#1"/>
    <trip id="88" depart="88.00" from="24652759#4" to="531935300"/>
    <trip id="89" depart="89.00" from="302701816#2" to="173516435"/>
    <trip id="90" depart="90.00" from="150316498#0" to="24650052#1"/>
    <trip id="91" depart="91.00" from="24650040#7" to="24650040#0"/>
    <trip id="92" depart="92.00" from="24652765#0" to="35972438#2"/>
    <trip id="93" depart="93.00" from="534527527#0" to="-432793073#0"/>
    <trip id="94" depart="94.00" from="425391225" to="24360382#1"/>
    <trip id="95" depart="95.00" from="427129776" to="24361011#0"/>
    <trip id="96" depart="96.00" from="420397520" to="291083102#3"/>
    <trip id="97" depart="97.00" from="539419561#0" to="24360702#2"/>
    <trip id="98" depart="98.00" from="420853981" to="415999042#1"/>
    <trip id="99" depart="99.00" from="24652759#4" to="-268437065"/>
    <trip id="100" depart="100.00" from="428274872#1" to="24360384"/>
    <trip id="101" depart="101.00" from="431751031" to="24419172"/>
    <trip id="102" depart="102.00" from="291083100#2" to="199287420#1"/>
    <trip id="103" depart="103.00" from="302701026#1" to="-24211848#0"/>
    <trip id="104" depart="104.00" from="-24681173" to="150316498#0"/>
    <trip id="105" depart="105.00" from="531955430" to="24650211"/>
    <trip id="106" depart="106.00" from="36826295#0" to="-370241715"/>
    <trip id="107" depart="107.00" from="24650052#0" to="-287938198"/>
    <trip id="108" depart="108.00" from="24652222" to="424184690#2"/>
    <trip id="109" depart="109.00" from="24360723#1" to="531959844"/>
    <trip id="110" depart="110.00" from="24360389" to="24652759#0"/>
    <trip id="111" depart="111.00" from="30480344#2" to="424184690#2"/>
    <trip id="112" depart="112.00" from="-24419172" to="420397506#1"/>
    <trip id="113" depart="113.00" from="31246306#0" to="24652759#2"/>
    <trip id="114" depart="114.00" from="415999042#0" to="422264046#5"/>
    <trip id="115" depart="115.00" from="24360389" to="-420385374#2"/>
    <trip id="116" depart="116.00" from="24650049" to="30480344#4"/>
    <trip id="117" depart="117.00" from="415999034" to="427643915"/>
    <trip id="118" depart="118.00" from="24681474" to="24611822#1"/>
    <trip id="119" depart="119.00" from="291083098#0" to="308669835#0"/>
    <trip id="120" depart="120.00" from="424804974#1" to="24681173"/>
    <trip id="121" depart="121.00" from="31236598" to="532188875"/>
    <trip id="122" depart="122.00" from="531937186#1" to="24212326#0"/>
    <trip id="123" depart="123.00" from="531935304#1" to="425205867#1"/>
    <trip id="124" depart="124.00" from="160695140#3" to="106941332"/>
    <trip id="125" depart="125.00" from="24360571#1" to="427636275#1"/>
    <trip id="126" depart="126.00" from="220063160#1" to="420853981"/>
    <trip id="127" depart="127.00" from="291083098#2" to="31236598"/>
    <trip id="128" depart="128.00" from="-421617168" to="24650064#1"/>
    <trip id="129" depart="129.00" from="291083102#5" to="24672302"/>
    <trip id="130" depart="130.00" from="531955428" to="24650040#0"/>
    <trip id="131" depart="131.00" from="-652135081" to="24652772"/>
    <trip id="132" depart="132.00" from="160695432#0" to="24672303"/>
    <trip id="133" depart="133.00" from="36826295#1" to="431949568"/>
    <trip id="134" depart="134.00" from="-199287420#1" to="534548504"/>
    <trip id="135" depart="135.00" from="420397519#1" to="50502913#1"/>
    <trip id="136" depart="136.00" from="24611998#2" to="24360454#2"/>
    <trip id="137" depart="137.00" from="24672316#3" to="291083098#0"/>
    <trip id="138" depart="138.00" from="-427692678#1" to="420385374#2"/>
    <trip id="139" depart="139.00" from="756749972" to="24650063"/>
</routes>
