<?xml version="1.0" encoding="UTF-8"?>
<!-- generated on 2020-05-22 03:19:37.256646 by randomTrips.py UNKNOWN
  options: -n erlangen.net.xml -r erlangen.rou.xml -e 420 -l
-->
<routes xmlns:xsi="http://www.w3.org/2001/XMLSchema-instance" xsi:noNamespaceSchemaLocation="http://sumo.dlr.de/xsd/routes_file.xsd">
    <trip id="0" depart="0.00" from="89383700#0" to="427129776"/>
    <trip id="1" depart="1.00" from="24611824#4" to="24666196#2"/>
    <trip id="2" depart="2.00" from="35972439#1" to="667191401#1"/>
    <trip id="3" depart="3.00" from="420385367#1" to="107938380#1"/>
    <trip id="4" depart="4.00" from="24681474" to="24360574"/>
    <trip id="5" depart="5.00" from="426225163#1" to="199287418#0"/>
    <trip id="6" depart="6.00" from="422264046#1" to="531908092#1"/>
    <trip id="7" depart="7.00" from="427691216#2" to="415999041#0"/>
    <trip id="8" depart="8.00" from="425205867#0" to="531935302"/>
    <trip id="9" depart="9.00" from="30480344#2" to="308669835#0"/>
    <trip id="10" depart="10.00" from="24419185" to="428066863#1"/>
    <trip id="11" depart="11.00" from="24361011#1" to="291083099"/>
    <trip id="12" depart="12.00" from="431975590" to="31528042"/>
    <trip id="13" depart="13.00" from="421491565#2" to="220063160#1"/>
    <trip id="14" depart="14.00" from="160695140#3" to="24360702#1"/>
    <trip id="15" depart="15.00" from="426245385#1" to="24360702#0"/>
    <trip id="16" depart="16.00" from="24650040#6" to="532182103#0"/>
    <trip id="17" depart="17.00" from="24419164#0" to="356064688"/>
    <trip id="18" depart="18.00" from="24360220#1" to="415999038#0"/>
    <trip id="19" depart="19.00" from="24672253" to="409673592"/>
    <trip id="20" depart="20.00" from="24652211#1" to="405801542#0"/>
    <trip id="21" depart="21.00" from="432035070" to="31921706#1"/>
    <trip id="22" depart="22.00" from="425391226#0" to="24681459#2"/>
    <trip id="23" depart="23.00" from="24652759#3" to="24672281"/>
    <trip id="24" depart="24.00" from="532184440" to="238009794#1"/>
    <trip id="25" depart="25.00" from="667195599#5" to="24360707#2"/>
    <trip id="26" depart="26.00" from="31529455#0" to="431996150#0"/>
    <trip id="27" depart="27.00" from="431768088#6" to="420397514"/>
    <trip id="28" depart="28.00" from="85865018#7" to="431981409"/>
    <trip id="29" depart="29.00" from="308669837#0" to="431751174#2"/>
    <trip id="30" depart="30.00" from="150316498#0" to="531955423"/>
    <trip id="31" depart="31.00" from="24650078" to="24650078"/>
    <trip id="32" depart="32.00" from="-24650034" to="24652207"/>
    <trip id="33" depart="33.00" from="415999038#3" to="421491565#0"/>
    <trip id="34" depart="34.00" from="534433684#0" to="24650044#2"/>
    <trip id="35" depart="35.00" from="415953888#1" to="356064695#0"/>
    <trip id="36" depart="36.00" from="-24211848#3" to="31143623#1"/>
    <trip id="37" depart="37.00" from="24650943#0" to="431981409"/>
    <trip id="38" depart="38.00" from="24650209" to="24652772"/>
    <trip id="39" depart="39.00" from="538947358" to="302701816#1"/>
    <trip id="40" depart="40.00" from="532184438" to="24650063"/>
    <trip id="41" depart="41.00" from="531935292" to="24652765#3"/>
    <trip id="42" depart="42.00" from="302701817#7" to="534516113"/>
    <trip id="43" depart="43.00" from="24360577#1" to="24650067#1"/>
    <trip id="44" depart="44.00" from="31921706#3" to="24650943#3"/>
    <trip id="45" depart="45.00" from="24650067#0" to="423040067"/>
    <trip id="46" depart="46.00" from="24360576" to="24212324"/>
    <trip id="47" depart="47.00" from="36826295#1" to="424184690#3"/>
    <trip id="48" depart="48.00" from="431768087#2" to="428274872#0"/>
    <trip id="49" depart="49.00" from="431949567" to="-24681474"/>
    <trip id="50" depart="50.00" from="425161060#1" to="431766086#0"/>
    <trip id="51" depart="51.00" from="302701816#2" to="37315584#2"/>
    <trip id="52" depart="52.00" from="160695140#4" to="531908092#0"/>
    <trip id="53" depart="53.00" from="71839143" to="37315584#6"/>
    <trip id="54" depart="54.00" from="24361580" to="24650209"/>
    <trip id="55" depart="55.00" from="420385374#2" to="37315584#0"/>
    <trip id="56" depart="56.00" from="770741694" to="534548504"/>
    <trip id="57" depart="57.00" from="-24611999#1" to="60268193"/>
    <trip id="58" depart="58.00" from="425205866#1" to="138055545#1"/>
    <trip id="59" depart="59.00" from="24360386#2" to="85865012#0"/>
    <trip id="60" depart="60.00" from="24652780#0" to="160695140#4"/>
    <trip id="61" depart="61.00" from="531953023" to="531908097"/>
    <trip id="62" depart="62.00" from="291083100#2" to="302701031"/>
    <trip id="63" depart="63.00" from="24611824#0" to="-24612001"/>
    <trip id="64" depart="64.00" from="420397506#1" to="425357175#2"/>
    <trip id="65" depart="65.00" from="31280190" to="30480341#1"/>
    <trip id="66" depart="66.00" from="427692678#1" to="31280190"/>
    <trip id="67" depart="67.00" from="415953888#1" to="292911530#0"/>
    <trip id="68" depart="68.00" from="420385367#1" to="539419561#0"/>
    <trip id="69" depart="69.00" from="24360707#2" to="35972438#2"/>
    <trip id="70" depart="70.00" from="385513376#1" to="24672251#1"/>
    <trip id="71" depart="71.00" from="532184441" to="128476620#1"/>
    <trip id="72" depart="72.00" from="427888491#2" to="308669838"/>
    <trip id="73" depart="73.00" from="240659577#4" to="24650081#1"/>
    <trip id="74" depart="74.00" from="24672301" to="31528042"/>
    <trip id="75" depart="75.00" from="24360226" to="423032020#1"/>
    <trip id="76" depart="76.00" from="302701817#7" to="-199287420#0"/>
    <trip id="77" depart="77.00" from="426361938" to="427125130"/>
    <trip id="78" depart="78.00" from="37017374#1" to="427692678#0"/>
    <trip id="79" depart="79.00" from="36921441#4" to="24672301"/>
    <trip id="80" depart="80.00" from="302701817#1" to="35972439#1"/>
    <trip id="81" depart="81.00" from="24650045#1" to="431737440"/>
    <trip id="82" depart="82.00" from="-35972438#0" to="415999042#0"/>
    <trip id="83" depart="83.00" from="415999041#7" to="24650044#2"/>
    <trip id="84" depart="84.00" from="531898573" to="-24211848#3"/>
    <trip id="85" depart="85.00" from="24360707#0" to="24663657#0"/>
    <trip id="86" depart="86.00" from="531935302" to="291081710#0"/>
    <trip id="87" depart="87.00" from="24360723#0" to="427692678#1"/>
    <trip id="88" depart="88.00" from="24611815#1" to="-356064695#0"/>
    <trip id="89" depart="89.00" from="36921441#6" to="24652223#0"/>
    <trip id="90" depart="90.00" from="36921439" to="425357175#2"/>
    <trip id="91" depart="91.00" from="138055545#1" to="420853981"/>
    <trip id="92" depart="92.00" from="268992259" to="420397514"/>
    <trip id="93" depart="93.00" from="24559890#3" to="302701026#2"/>
    <trip id="94" depart="94.00" from="24652222" to="24652223#0"/>
    <trip id="95" depart="95.00" from="308669836" to="534510784"/>
    <trip id="96" depart="96.00" from="24612137" to="540363260#0"/>
    <trip id="97" depart="97.00" from="362955130" to="24361373#1"/>
    <trip id="98" depart="98.00" from="311202433#0" to="238009794#0"/>
    <trip id="99" depart="99.00" from="415999040#1" to="531955428"/>
    <trip id="100" depart="100.00" from="24360571#4" to="431949568"/>
    <trip id="101" depart="101.00" from="-31245585#1" to="427125129"/>
    <trip id="102" depart="102.00" from="427635472#1" to="415953888#1"/>
    <trip id="103" depart="103.00" from="431773478" to="24419172"/>
    <trip id="104" depart="104.00" from="302701029#0" to="24360577#1"/>
    <trip id="105" depart="105.00" from="539419560" to="-24419164#0"/>
    <trip id="106" depart="106.00" from="24612002#0" to="24361011#2"/>
    <trip id="107" depart="107.00" from="150316498#0" to="24611808#1"/>
    <trip id="108" depart="108.00" from="425369970#0" to="-24211848#0"/>
    <trip id="109" depart="109.00" from="540363260#0" to="415999041#7"/>
    <trip id="110" depart="110.00" from="255733601" to="426166043#1"/>
    <trip id="111" depart="111.00" from="220063159" to="24612006"/>
    <trip id="112" depart="112.00" from="-24212573" to="667195599#1"/>
    <trip id="113" depart="113.00" from="-531938897" to="24612004"/>
    <trip id="114" depart="114.00" from="160695132" to="-63521323#1"/>
    <trip id="115" depart="115.00" from="531955430" to="291083095#0"/>
    <trip id="116" depart="116.00" from="431771498#0" to="-24612001"/>
    <trip id="117" depart="117.00" from="24652223#0" to="-24211848#0"/>
    <trip id="118" depart="118.00" from="532139226" to="24361582"/>
    <trip id="119" depart="119.00" from="36921441#6" to="24650041#8"/>
    <trip id="120" depart="120.00" from="409673591#1" to="431768087#4"/>
    <trip id="121" depart="121.00" from="431776018#2" to="24361001#0"/>
    <trip id="122" depart="122.00" from="150166749#3" to="24611995#2"/>
    <trip id="123" depart="123.00" from="-427692678#0" to="-31245585#1"/>
    <trip id="124" depart="124.00" from="415999040#1" to="431723954#3"/>
    <trip id="125" depart="125.00" from="422264046#3" to="-24419164#0"/>
    <trip id="126" depart="126.00" from="247705006" to="24672281"/>
    <trip id="127" depart="127.00" from="422264046#5" to="425426454#0"/>
    <trip id="128" depart="128.00" from="24650044#0" to="24650062"/>
    <trip id="129" depart="129.00" from="308669837#2" to="409673591#2"/>
    <trip id="130" depart="130.00" from="427635472#1" to="431766093"/>
    <trip id="131" depart="131.00" from="426225160#0" to="427125129"/>
    <trip id="132" depart="132.00" from="24611824#4" to="424183875#0"/>
    <trip id="133" depart="133.00" from="24650052#0" to="24650049"/>
    <trip id="134" depart="134.00" from="24650041#2" to="427125130"/>
    <trip id="135" depart="135.00" from="287902869#1" to="24650040#2"/>
    <trip id="136" depart="136.00" from="427636275#0" to="291083105"/>
    <trip id="137" depart="137.00" from="310525151" to="35972438#2"/>
    <trip id="138" depart="138.00" from="24652778#1" to="24211848#3"/>
    <trip id="139" depart="139.00" from="431776018#1" to="-409675309"/>
    <trip id="140" depart="140.00" from="425195366" to="24360711"/>
    <trip id="141" depart="141.00" from="24611998#2" to="24360220#3"/>
    <trip id="142" depart="142.00" from="24360723#0" to="24361001#0"/>
    <trip id="143" depart="143.00" from="24650064#1" to="302701817#7"/>
    <trip id="144" depart="144.00" from="538952543#1" to="534510784"/>
    <trip id="145" depart="145.00" from="24652778#0" to="24652765#2"/>
    <trip id="146" depart="146.00" from="667191401#2" to="-427692678#1"/>
    <trip id="147" depart="147.00" from="24650024" to="291083095#0"/>
    <trip id="148" depart="148.00" from="427643918#0" to="427691216#0"/>
    <trip id="149" depart="149.00" from="302701026#3" to="60268193"/>
    <trip id="150" depart="150.00" from="531935294" to="427843246"/>
    <trip id="151" depart="151.00" from="431737440" to="37017374#1"/>
    <trip id="152" depart="152.00" from="425391225" to="24611808#2"/>
    <trip id="153" depart="153.00" from="532184438" to="31280190"/>
    <trip id="154" depart="154.00" from="431768088#6" to="24650052#0"/>
    <trip id="155" depart="155.00" from="432793073#0" to="37315584#2"/>
    <trip id="156" depart="156.00" from="199287420#0" to="363246361"/>
    <trip id="157" depart="157.00" from="24559926" to="240659577#3"/>
    <trip id="158" depart="158.00" from="291083098#2" to="561831375#0"/>
    <trip id="159" depart="159.00" from="291083102#6" to="425161053#0"/>
    <trip id="160" depart="160.00" from="308669838" to="426225161#0"/>
    <trip id="161" depart="161.00" from="415999045" to="431762830"/>
    <trip id="162" depart="162.00" from="431771840" to="128476620#1"/>
    <trip id="163" depart="163.00" from="425205867#1" to="24650050#0"/>
    <trip id="164" depart="164.00" from="24360723#1" to="31246306#0"/>
    <trip id="165" depart="165.00" from="31529455#1" to="24611821#0"/>
    <trip id="166" depart="166.00" from="302701817#3" to="-173677133"/>
    <trip id="167" depart="167.00" from="-24419185" to="421516192"/>
    <trip id="168" depart="168.00" from="531955430" to="31922086#1"/>
    <trip id="169" depart="169.00" from="291083104#0" to="24672251#3"/>
    <trip id="170" depart="170.00" from="356064695#0" to="-24612002#0"/>
    <trip id="171" depart="171.00" from="291083098#0" to="420861081"/>
    <trip id="172" depart="172.00" from="420397509#1" to="425205867#1"/>
    <trip id="173" depart="173.00" from="428066862#1" to="540428269"/>
    <trip id="174" depart="174.00" from="539419560" to="427635472#3"/>
    <trip id="175" depart="175.00" from="-510873600" to="302701026#1"/>
    <trip id="176" depart="176.00" from="24681474" to="85865012#0"/>
    <trip id="177" depart="177.00" from="24612002#0" to="291081710#0"/>
    <trip id="178" depart="178.00" from="24650041#0" to="427691216#7"/>
    <trip id="179" depart="179.00" from="150316498#4" to="425161101"/>
    <trip id="180" depart="180.00" from="24559802#1" to="24212326#0"/>
    <trip id="181" depart="181.00" from="427635471#0" to="199287418#1"/>
    <trip id="182" depart="182.00" from="291083104#2" to="36921441#0"/>
    <trip id="183" depart="183.00" from="24212326#0" to="-199287420#0"/>
    <trip id="184" depart="184.00" from="35972437#0" to="431751173"/>
    <trip id="185" depart="185.00" from="-24612004" to="415999042#0"/>
    <trip id="186" depart="186.00" from="24360574" to="423032020#0"/>
    <trip id="187" depart="187.00" from="36826295#1" to="431766086#0"/>
    <trip id="188" depart="188.00" from="426166046" to="24611824#0"/>
    <trip id="189" depart="189.00" from="426166043#0" to="415999042#1"/>
    <trip id="190" depart="190.00" from="106941334" to="415999043#1"/>
    <trip id="191" depart="191.00" from="-35972438#4" to="539419561#1"/>
    <trip id="192" depart="192.00" from="24652780#1" to="24360454#3"/>
    <trip id="193" depart="193.00" from="160695132" to="420385362#1"/>
    <trip id="194" depart="194.00" from="385513376#0" to="431981409"/>
    <trip id="195" depart="195.00" from="-128476620#1" to="24612002#1"/>
    <trip id="196" depart="196.00" from="268437065" to="37315584#6"/>
    <trip id="197" depart="197.00" from="35972438#0" to="431768088#8"/>
    <trip id="198" depart="198.00" from="24672253" to="532187512"/>
    <trip id="199" depart="199.00" from="-24611999#0" to="24650064#1"/>
    <trip id="200" depart="200.00" from="61129783" to="24650063"/>
    <trip id="201" depart="201.00" from="24360220#0" to="24361582"/>
    <trip id="202" depart="202.00" from="531937183#2" to="425357175#0"/>
    <trip id="203" depart="203.00" from="428274872#1" to="538952543#1"/>
    <trip id="204" depart="204.00" from="63521323#1" to="150316498#0"/>
    <trip id="205" depart="205.00" from="-24419172" to="-24211848#0"/>
    <trip id="206" depart="206.00" from="532138449#1" to="24650045#1"/>
    <trip id="207" depart="207.00" from="24361580" to="24650943#3"/>
    <trip id="208" depart="208.00" from="531935303" to="150316498#0"/>
    <trip id="209" depart="209.00" from="24652780#1" to="24650041#4"/>
    <trip id="210" depart="210.00" from="432198818" to="24360723#0"/>
    <trip id="211" depart="211.00" from="431768087#4" to="50502913#1"/>
    <trip id="212" depart="212.00" from="534433692#0" to="24650040#5"/>
    <trip id="213" depart="213.00" from="-24360705" to="24611824#5"/>
    <trip id="214" depart="214.00" from="-24681474" to="24672301"/>
    <trip id="215" depart="215.00" from="-652135081" to="24360577#1"/>
    <trip id="216" depart="216.00" from="291083102#9" to="24650062"/>
    <trip id="217" depart="217.00" from="431768085" to="421924785"/>
    <trip id="218" depart="218.00" from="24650041#9" to="89383700#1"/>
    <trip id="219" depart="219.00" from="431740482" to="428066862#0"/>
    <trip id="220" depart="220.00" from="24650041#9" to="425391225"/>
    <trip id="221" depart="221.00" from="24672302" to="24419172"/>
    <trip id="222" depart="222.00" from="-24419164#0" to="415999034"/>
    <trip id="223" depart="223.00" from="24650942#1" to="-268437065"/>
    <trip id="224" depart="224.00" from="431737440" to="24617779#1"/>
    <trip id="225" depart="225.00" from="385513376#0" to="431771498#1"/>
    <trip id="226" depart="226.00" from="534548505" to="30480344#4"/>
    <trip id="227" depart="227.00" from="427635472#0" to="534510824"/>
    <trip id="228" depart="228.00" from="420854021#0" to="425382683#0"/>
    <trip id="229" depart="229.00" from="291083102#8" to="24650041#8"/>
    <trip id="230" depart="230.00" from="667195599#5" to="532187512"/>
    <trip id="231" depart="231.00" from="531902813" to="50502913#0"/>
    <trip id="232" depart="232.00" from="63521323#0" to="-24211848#2"/>
    <trip id="233" depart="233.00" from="24650040#2" to="24612001"/>
    <trip id="234" depart="234.00" from="431722531#1" to="427906278#0"/>
    <trip id="235" depart="235.00" from="531939266" to="427125130"/>
    <trip id="236" depart="236.00" from="24652770" to="291083100#1"/>
    <trip id="237" depart="237.00" from="420861083" to="532188875"/>
    <trip id="238" depart="238.00" from="-427692678#0" to="667195599#4"/>
    <trip id="239" depart="239.00" from="31922086#1" to="35972438#0"/>
    <trip id="240" depart="240.00" from="24360220#0" to="426468658"/>
    <trip id="241" depart="241.00" from="421565755" to="-31245585#0"/>
    <trip id="242" depart="242.00" from="31922086#0" to="31921706#3"/>
    <trip id="243" depart="243.00" from="24611808#0" to="121072321#1"/>
    <trip id="244" depart="244.00" from="424184690#2" to="24361011#3"/>
    <trip id="245" depart="245.00" from="24212326#2" to="534527523"/>
    <trip id="246" depart="246.00" from="-31245585#1" to="427643918#0"/>
    <trip id="247" depart="247.00" from="291081716#0" to="128476620#1"/>
    <trip id="248" depart="248.00" from="24672316#3" to="24650024"/>
    <trip id="249" depart="249.00" from="24612004" to="128476488#1"/>
    <trip id="250" depart="250.00" from="36826295#0" to="24666196#2"/>
    <trip id="251" depart="251.00" from="370241718#9" to="-24211848#3"/>
    <trip id="252" depart="252.00" from="-24611995#4" to="24360386#2"/>
    <trip id="253" depart="253.00" from="24611824#2" to="425357175#2"/>
    <trip id="254" depart="254.00" from="24650067#1" to="37315584#6"/>
    <trip id="255" depart="255.00" from="431766086#1" to="426225160#1"/>
    <trip id="256" depart="256.00" from="531937183#3" to="532138881#0"/>
    <trip id="257" depart="257.00" from="24650063" to="425357175#2"/>
    <trip id="258" depart="258.00" from="531902814" to="302701026#0"/>
    <trip id="259" depart="259.00" from="532188875" to="24672301"/>
    <trip id="260" depart="260.00" from="24212324" to="291083101"/>
    <trip id="261" depart="261.00" from="308669836" to="425382683#1"/>
    <trip id="262" depart="262.00" from="-24611995#4" to="219886402"/>
    <trip id="263" depart="263.00" from="531959844" to="425357175#2"/>
    <trip id="264" depart="264.00" from="287140829#1" to="31236598"/>
    <trip id="265" depart="265.00" from="302701026#3" to="431766086#1"/>
    <trip id="266" depart="266.00" from="426225160#2" to="24211848#2"/>
    <trip id="267" depart="267.00" from="534510784" to="-561831375#0"/>
    <trip id="268" depart="268.00" from="427129777#2" to="24611815#1"/>
    <trip id="269" depart="269.00" from="36921441#4" to="24652207"/>
    <trip id="270" depart="270.00" from="531902813" to="24672251#1"/>
    <trip id="271" depart="271.00" from="24360723#1" to="-24361580"/>
    <trip id="272" depart="272.00" from="431771840" to="426166042"/>
    <trip id="273" depart="273.00" from="425195366" to="422271119"/>
    <trip id="274" depart="274.00" from="24559890#4" to="24559926"/>
    <trip id="275" depart="275.00" from="531898575" to="538783728"/>
    <trip id="276" depart="276.00" from="85865012#0" to="24211848#3"/>
    <trip id="277" depart="277.00" from="-63521323#1" to="431766086#1"/>
    <trip id="278" depart="278.00" from="31143623#0" to="421491565#0"/>
    <trip id="279" depart="279.00" from="24611824#4" to="420385367#1"/>
    <trip id="280" depart="280.00" from="31922086#1" to="160695432#0"/>
    <trip id="281" depart="281.00" from="291083094#0" to="427692678#1"/>
    <trip id="282" depart="282.00" from="427635472#3" to="415953888#1"/>
    <trip id="283" depart="283.00" from="421924785" to="150316498#4"/>
    <trip id="284" depart="284.00" from="431996150#0" to="424183875#0"/>
    <trip id="285" depart="285.00" from="24212326#1" to="425161060#0"/>
    <trip id="286" depart="286.00" from="416013014#2" to="60268193"/>
    <trip id="287" depart="287.00" from="287140829#0" to="424798277#0"/>
    <trip id="288" depart="288.00" from="531937186#1" to="420385367#1"/>
    <trip id="289" depart="289.00" from="291083102#3" to="425369970#2"/>
    <trip id="290" depart="290.00" from="421924785" to="24652781#0"/>
    <trip id="291" depart="291.00" from="31529455#1" to="24406756#0"/>
    <trip id="292" depart="292.00" from="24360380#1" to="662507857"/>
    <trip id="293" depart="293.00" from="24360386#2" to="422264046#1"/>
    <trip id="294" depart="294.00" from="425382683#0" to="24611824#2"/>
    <trip id="295" depart="295.00" from="425161053#0" to="431975590"/>
    <trip id="296" depart="296.00" from="24211848#3" to="160695140#3"/>
    <trip id="297" depart="297.00" from="61129783" to="291263660#0"/>
    <trip id="298" depart="298.00" from="431768087#4" to="24559926"/>
    <trip id="299" depart="299.00" from="291083102#3" to="199287418#0"/>
    <trip id="300" depart="300.00" from="24211848#3" to="24360707#1"/>
    <trip id="301" depart="301.00" from="431768088#0" to="-24360389"/>
    <trip id="302" depart="302.00" from="385513380" to="24211848#2"/>
    <trip id="303" depart="303.00" from="-24611999#1" to="291263660#1"/>
    <trip id="304" depart="304.00" from="24650041#0" to="421491565#2"/>
    <trip id="305" depart="305.00" from="421491565#0" to="-24612006"/>
    <trip id="306" depart="306.00" from="24211848#0" to="425161053#0"/>
    <trip id="307" depart="307.00" from="-24212573" to="24650041#3"/>
    <trip id="308" depart="308.00" from="532184438" to="-268437065"/>
    <trip id="309" depart="309.00" from="24212328" to="424804974#2"/>
    <trip id="310" depart="310.00" from="308669837#0" to="431768088#0"/>
    <trip id="311" depart="311.00" from="531902813" to="24672252"/>
    <trip id="312" depart="312.00" from="24360380#1" to="431768085"/>
    <trip id="313" depart="313.00" from="532138449#0" to="36826295#1"/>
    <trip id="314" depart="314.00" from="31236598" to="89383700#0"/>
    <trip id="315" depart="315.00" from="534433692#0" to="426225162#2"/>
    <trip id="316" depart="316.00" from="431751174#0" to="431946930"/>
    <trip id="317" depart="317.00" from="-24681173" to="24611808#2"/>
    <trip id="318" depart="318.00" from="415999035#1" to="302701809#1"/>
    <trip id="319" depart="319.00" from="534433671" to="534516111"/>
    <trip id="320" depart="320.00" from="409607686" to="50502913#1"/>
    <trip id="321" depart="321.00" from="308669836" to="37315584#6"/>
    <trip id="322" depart="322.00" from="510873600" to="291081716#0"/>
    <trip id="323" depart="323.00" from="37315584#6" to="31268070"/>
    <trip id="324" depart="324.00" from="770741694" to="106941332"/>
    <trip id="325" depart="325.00" from="531935302" to="36921441#7"/>
    <trip id="326" depart="326.00" from="24672302" to="431770506"/>
    <trip id="327" depart="327.00" from="409673591#2" to="421565755"/>
    <trip id="328" depart="328.00" from="287902869#1" to="85865018#4"/>
    <trip id="329" depart="329.00" from="107938380#2" to="431722532#0"/>
    <trip id="330" depart="330.00" from="291263660#0" to="61129783"/>
    <trip id="331" depart="331.00" from="24652759#4" to="24650041#1"/>
    <trip id="332" depart="332.00" from="427643916#1" to="24652772"/>
    <trip id="333" depart="333.00" from="-420385374#2" to="31245582"/>
    <trip id="334" depart="334.00" from="427692679#1" to="415999041#7"/>
    <trip id="335" depart="335.00" from="425426453#1" to="415999035#0"/>
    <trip id="336" depart="336.00" from="-31245585#1" to="431981409"/>
    <trip id="337" depart="337.00" from="24212324" to="431768085"/>
    <trip id="338" depart="338.00" from="24360577#1" to="302701817#3"/>
    <trip id="339" depart="339.00" from="431768088#5" to="425391226#0"/>
    <trip id="340" depart="340.00" from="-24672270" to="431773479#0"/>
    <trip id="341" depart="341.00" from="425426453#0" to="431766086#1"/>
    <trip id="342" depart="342.00" from="431768088#3" to="291083095#1"/>
    <trip id="343" depart="343.00" from="24672303" to="425357175#2"/>
    <trip id="344" depart="344.00" from="24652222" to="531908097"/>
    <trip id="345" depart="345.00" from="538952543#1" to="531952886"/>
    <trip id="346" depart="346.00" from="24652781#2" to="424798277#0"/>
    <trip id="347" depart="347.00" from="534510803#1" to="24672282"/>
    <trip id="348" depart="348.00" from="540363260#0" to="-24681474"/>
    <trip id="349" depart="349.00" from="31018706" to="428274872#0"/>
    <trip id="350" depart="350.00" from="24611995#4" to="24672251#5"/>
    <trip id="351" depart="351.00" from="415999038#2" to="160695140#4"/>
    <trip id="352" depart="352.00" from="432805065" to="532138883"/>
    <trip id="353" depart="353.00" from="409607687#1" to="291083104#0"/>
    <trip id="354" depart="354.00" from="31922086#1" to="24611820"/>
    <trip id="355" depart="355.00" from="531902813" to="425195366"/>
    <trip id="356" depart="356.00" from="107938376#0" to="431722532#0"/>
    <trip id="357" depart="357.00" from="427635472#3" to="85865018#3"/>
    <trip id="358" depart="358.00" from="363221375" to="415999039"/>
    <trip id="359" depart="359.00" from="24650081#1" to="-31245585#0"/>
    <trip id="360" depart="360.00" from="427643918#0" to="150166771#0"/>
    <trip id="361" depart="361.00" from="-420397514" to="24681173"/>
    <trip id="362" depart="362.00" from="421616332#2" to="-24611997#1"/>
    <trip id="363" depart="363.00" from="531937189" to="63521323#0"/>
    <trip id="364" depart="364.00" from="531908097" to="534516111"/>
    <trip id="365" depart="365.00" from="37315584#6" to="24360454#2"/>
    <trip id="366" depart="366.00" from="302701817#7" to="534510817#2"/>
    <trip id="367" depart="367.00" from="36921441#8" to="420397513#1"/>
    <trip id="368" depart="368.00" from="431981409" to="431914697"/>
    <trip id="369" depart="369.00" from="421565755" to="538952542"/>
    <trip id="370" depart="370.00" from="24672251#2" to="291083104#1"/>
    <trip id="371" depart="371.00" from="150316498#0" to="24360384"/>
    <trip id="372" depart="372.00" from="409607687#1" to="538952542"/>
    <trip id="373" depart="373.00" from="424798277#1" to="302701026#1"/>
    <trip id="374" depart="374.00" from="667195599#4" to="431770506"/>
    <trip id="375" depart="375.00" from="24612003#0" to="423032020#0"/>
    <trip id="376" depart="376.00" from="-31280190" to="531937189"/>
    <trip id="377" depart="377.00" from="360617341#1" to="427888491#2"/>
    <trip id="378" depart="378.00" from="431768088#5" to="291083090"/>
    <trip id="379" depart="379.00" from="35972439#1" to="36921441#4"/>
    <trip id="380" depart="380.00" from="291081716#1" to="24681459#2"/>
    <trip id="381" depart="381.00" from="24361580" to="431768088#4"/>
    <trip id="382" depart="382.00" from="428048489#2" to="-24419185"/>
    <trip id="383" depart="383.00" from="31018706" to="-24611999#0"/>
    <trip id="384" depart="384.00" from="31922086#1" to="431722532#0"/>
    <trip id="385" depart="385.00" from="431751173" to="-24612004"/>
    <trip id="386" depart="386.00" from="302701817#3" to="24650062"/>
    <trip id="387" depart="387.00" from="428048489#2" to="24360707#3"/>
    <trip id="388" depart="388.00" from="420385374#1" to="24611820"/>
    <trip id="389" depart="389.00" from="-420397506#3" to="-268437065"/>
    <trip id="390" depart="390.00" from="531937183#0" to="427691216#2"/>
    <trip id="391" depart="391.00" from="311202433#0" to="308669836"/>
    <trip id="392" depart="392.00" from="24611808#1" to="85865018#5"/>
    <trip id="393" depart="393.00" from="30480341#4" to="424804974#0"/>
    <trip id="394" depart="394.00" from="409673591#1" to="24666196#1"/>
    <trip id="395" depart="395.00" from="50502913#1" to="416005326"/>
    <trip id="396" depart="396.00" from="36921441#7" to="662507857"/>
    <trip id="397" depart="397.00" from="160695432#0" to="24672255#0"/>
    <trip id="398" depart="398.00" from="24650045#1" to="24650041#0"/>
    <trip id="399" depart="399.00" from="-561831375#1" to="427635472#2"/>
    <trip id="400" depart="400.00" from="532187512" to="425161060#0"/>
    <trip id="401" depart="401.00" from="531935302" to="431949568"/>
    <trip id="402" depart="402.00" from="-128476620#1" to="24672302"/>
    <trip id="403" depart="403.00" from="427843247#0" to="24361006#0"/>
    <trip id="404" depart="404.00" from="24212324" to="534516113"/>
    <trip id="405" depart="405.00" from="422264046#6" to="302701026#3"/>
    <trip id="406" depart="406.00" from="422268369" to="150316498#4"/>
    <trip id="407" depart="407.00" from="534544851#0" to="302701026#1"/>
    <trip id="408" depart="408.00" from="24652781#2" to="24650064#1"/>
    <trip id="409" depart="409.00" from="-24212573" to="24559802#5"/>
    <trip id="410" depart="410.00" from="-629645549" to="24611822#0"/>
    <trip id="411" depart="411.00" from="427888491#3" to="425205867#1"/>
    <trip id="412" depart="412.00" from="532184438" to="199287420#0"/>
    <trip id="413" depart="413.00" from="531959844" to="420853981"/>
    <trip id="414" depart="414.00" from="24361580" to="24672281"/>
    <trip id="415" depart="415.00" from="24611998#2" to="24666196#2"/>
    <trip id="416" depart="416.00" from="24612006" to="31960418#1"/>
    <trip id="417" depart="417.00" from="24652213#1" to="149813030"/>
    <trip id="418" depart="418.00" from="425205867#1" to="291083098#1"/>
    <trip id="419" depart="419.00" from="291083097#3" to="60268193"/>
</routes>
