<?xml version="1.0" encoding="UTF-8"?>

<!-- generated on Wed 13 May 2020 07:10:51 PM -05 by Eclipse SUMO netedit Version 1.6.0
<configuration xmlns:xsi="http://www.w3.org/2001/XMLSchema-instance" xsi:noNamespaceSchemaLocation="http://sumo.dlr.de/xsd/netconvertConfiguration.xsd">

    <input>
        <sumo-net-file value="/home/storm/Downloads/projmap/erlangen.net.xml"/>
    </input>

    <output>
        <output-file value="/home/storm/Downloads/projmap/erlangen.net.xml"/>
    </output>

    <processing>
        <geometry.min-radius.fix.railways value="false"/>
        <geometry.max-grade.fix value="false"/>
        <offset.disable-normalization value="true"/>
        <lefthand value="false"/>
    </processing>

    <junctions>
        <no-turnarounds value="true"/>
        <junctions.corner-detail value="5"/>
        <junctions.limit-turn-speed value="5.5"/>
        <rectangular-lane-cut value="false"/>
    </junctions>

    <pedestrian>
        <walkingareas value="false"/>
    </pedestrian>

    <report>
        <aggregate-warnings value="5"/>
    </report>

</configuration>
-->

<net version="1.6" junctionCornerDetail="5" limitTurnSpeed="5.50" xmlns:xsi="http://www.w3.org/2001/XMLSchema-instance" xsi:noNamespaceSchemaLocation="http://sumo.dlr.de/xsd/net_file.xsd">

    <location netOffset="-776679.30,24406.05" convBoundary="642.16,857.94,3886.03,2730.28" origBoundary="-78.514320,-0.220600,-78.480200,-0.153380" projParameter="+proj=utm +zone=17 +ellps=WGS84 +datum=WGS84 +units=m +no_defs"/>
	
    <type id="highway.bridleway" priority="1" numLanes="1" speed="2.78" allow="pedestrian" oneway="1" width="2.00"/>
    <type id="highway.bus_guideway" priority="1" numLanes="1" speed="27.78" allow="bus" oneway="1"/>
    <type id="highway.cycleway" priority="1" numLanes="1" speed="8.33" allow="bicycle" oneway="0" width="1.00"/>
    <type id="highway.footway" priority="1" numLanes="1" speed="2.78" allow="pedestrian" oneway="1" width="2.00"/>
    <type id="highway.ford" priority="1" numLanes="1" speed="2.78" allow="army" oneway="0"/>
    <type id="highway.living_street" priority="2" numLanes="1" speed="2.78" disallow="tram rail_urban rail rail_electric rail_fast ship" oneway="0"/>
    <type id="highway.motorway" priority="14" numLanes="2" speed="39.44" allow="private emergency authority army vip passenger hov taxi bus coach delivery truck trailer motorcycle evehicle custom1 custom2" oneway="1"/>
    <type id="highway.motorway_link" priority="9" numLanes="1" speed="22.22" allow="private emergency authority army vip passenger hov taxi bus coach delivery truck trailer motorcycle evehicle custom1 custom2" oneway="1"/>
    <type id="highway.path" priority="1" numLanes="1" speed="2.78" allow="pedestrian bicycle" oneway="1" width="2.00"/>
    <type id="highway.pedestrian" priority="1" numLanes="1" speed="2.78" allow="pedestrian" oneway="1" width="2.00"/>
    <type id="highway.primary" priority="12" numLanes="2" speed="27.78" disallow="tram rail_urban rail rail_electric rail_fast ship" oneway="0"/>
    <type id="highway.primary_link" priority="7" numLanes="1" speed="22.22" disallow="tram rail_urban rail rail_electric rail_fast ship" oneway="0"/>
    <type id="highway.raceway" priority="15" numLanes="2" speed="83.33" allow="vip" oneway="0"/>
    <type id="highway.residential" priority="3" numLanes="1" speed="13.89" disallow="tram rail_urban rail rail_electric rail_fast ship" oneway="0"/>
    <type id="highway.secondary" priority="11" numLanes="1" speed="27.78" disallow="tram rail_urban rail rail_electric rail_fast ship" oneway="0"/>
    <type id="highway.secondary_link" priority="6" numLanes="1" speed="22.22" disallow="tram rail_urban rail rail_electric rail_fast ship" oneway="0"/>
    <type id="highway.service" priority="1" numLanes="1" speed="5.56" allow="pedestrian delivery bicycle" oneway="0"/>
    <type id="highway.stairs" priority="1" numLanes="1" speed="1.39" allow="pedestrian" oneway="1" width="2.00"/>
    <type id="highway.step" priority="1" numLanes="1" speed="1.39" allow="pedestrian" oneway="1" width="2.00"/>
    <type id="highway.steps" priority="1" numLanes="1" speed="1.39" allow="pedestrian" oneway="1" width="2.00"/>
    <type id="highway.tertiary" priority="10" numLanes="1" speed="22.22" disallow="tram rail_urban rail rail_electric rail_fast ship" oneway="0"/>
    <type id="highway.tertiary_link" priority="5" numLanes="1" speed="22.22" disallow="tram rail_urban rail rail_electric rail_fast ship" oneway="0"/>
    <type id="highway.track" priority="1" numLanes="1" speed="5.56" disallow="tram rail_urban rail rail_electric rail_fast ship" oneway="0"/>
    <type id="highway.trunk" priority="13" numLanes="2" speed="27.78" disallow="pedestrian bicycle tram rail_urban rail rail_electric rail_fast ship" oneway="0"/>
    <type id="highway.trunk_link" priority="8" numLanes="1" speed="22.22" disallow="pedestrian bicycle tram rail_urban rail rail_electric rail_fast ship" oneway="0"/>
    <type id="highway.unclassified" priority="4" numLanes="1" speed="13.89" disallow="tram rail_urban rail rail_electric rail_fast ship" oneway="0"/>
    <type id="highway.unsurfaced" priority="1" numLanes="1" speed="8.33" disallow="tram rail_urban rail rail_electric rail_fast ship" oneway="0"/>
    <type id="railway.highspeed" priority="21" numLanes="1" speed="69.44" allow="rail_fast" oneway="1"/>
    <type id="railway.light_rail" priority="19" numLanes="1" speed="27.78" allow="rail_urban" oneway="1"/>
    <type id="railway.preserved" priority="16" numLanes="1" speed="27.78" allow="rail" oneway="1"/>
    <type id="railway.rail" priority="20" numLanes="1" speed="44.44" allow="rail" oneway="1"/>
    <type id="railway.subway" priority="18" numLanes="1" speed="27.78" allow="rail_urban" oneway="1"/>
    <type id="railway.tram" priority="17" numLanes="1" speed="13.89" allow="tram" oneway="1"/>

    <edge id=":1108625963_0" function="internal">
        <lane id=":1108625963_0_0" index="0" disallow="tram rail_urban rail rail_electric rail_fast ship" speed="6.56" length="8.70" shape="2369.36,1202.06 2367.20,1201.18 2365.23,1201.19 2363.43,1202.08 2361.82,1203.85"/>
    </edge>
    <edge id=":1108625963_1" function="internal">
        <lane id=":1108625963_1_0" index="0" disallow="tram rail_urban rail rail_electric rail_fast ship" speed="13.89" length="10.59" shape="2369.36,1202.06 2360.35,1196.51"/>
    </edge>
    <edge id=":1108626005_0" function="internal">
        <lane id=":1108626005_0_0" index="0" allow="pedestrian delivery bicycle" speed="5.56" length="5.01" shape="2782.27,1161.02 2777.67,1159.04"/>
    </edge>
    <edge id=":1108626005_1" function="internal">
        <lane id=":1108626005_1_0" index="0" allow="pedestrian delivery bicycle" speed="3.65" length="4.67" shape="2782.27,1161.02 2781.49,1159.81 2781.43,1158.91 2782.12,1158.34 2783.53,1158.07"/>
    </edge>
    <edge id=":1108626005_2" function="internal">
        <lane id=":1108626005_2_0" index="0" allow="pedestrian delivery bicycle" speed="5.56" length="5.00" shape="2778.94,1156.10 2783.53,1158.07"/>
    </edge>
    <edge id=":1108626005_3" function="internal">
        <lane id=":1108626005_3_0" index="0" allow="pedestrian delivery bicycle" speed="3.65" length="4.67" shape="2778.94,1156.10 2779.72,1157.31 2779.78,1158.20 2779.09,1158.78 2777.67,1159.04"/>
    </edge>
    <edge id=":1108626066_0" function="internal">
        <lane id=":1108626066_0_0" index="0" allow="pedestrian delivery bicycle" speed="9.72" length="0.65" shape="2776.81,1301.61 2776.64,1301.51 2776.53,1301.43 2776.43,1301.35 2776.28,1301.23"/>
    </edge>
    <edge id=":1108626066_1" function="internal">
        <lane id=":1108626066_1_0" index="0" disallow="tram rail_urban rail rail_electric rail_fast ship" speed="3.65" length="2.34" shape="2776.81,1301.61 2776.21,1300.30 2776.30,1299.41"/>
    </edge>
    <edge id=":1108626066_3" function="internal">
        <lane id=":1108626066_3_0" index="0" disallow="tram rail_urban rail rail_electric rail_fast ship" speed="3.65" length="2.34" shape="2776.30,1299.41 2777.06,1298.94 2778.50,1298.90"/>
    </edge>
    <edge id=":1108626066_2" function="internal">
        <lane id=":1108626066_2_0" index="0" allow="pedestrian delivery bicycle" speed="9.72" length="0.22" shape="2778.33,1298.77 2778.38,1298.81 2778.41,1298.84 2778.45,1298.86 2778.50,1298.90"/>
    </edge>
    <edge id=":1136374727_0" function="internal">
        <lane id=":1136374727_0_0" index="0" allow="pedestrian delivery bicycle" speed="5.56" length="1.24" shape="1215.24,1683.32 1215.04,1683.01 1214.93,1682.79 1214.83,1682.56 1214.72,1682.21"/>
    </edge>
    <edge id=":1136374727_1" function="internal">
        <lane id=":1136374727_1_0" index="0" allow="pedestrian delivery bicycle" speed="5.56" length="0.41" shape="1217.77,1681.24 1217.81,1681.36 1217.84,1681.44 1217.88,1681.51 1217.94,1681.61"/>
    </edge>
    <edge id=":1136374762_0" function="internal">
        <lane id=":1136374762_0_0" index="0" allow="pedestrian delivery bicycle" speed="3.65" length="4.67" shape="1221.79,1640.68 1222.83,1639.68 1223.70,1639.47 1224.39,1640.03 1224.91,1641.38"/>
    </edge>
    <edge id=":1136374840_0" function="internal">
        <lane id=":1136374840_0_0" index="0" allow="pedestrian delivery bicycle" speed="5.56" length="16.52" shape="1189.32,1709.49 1188.52,1705.63 1186.98,1701.67 1185.14,1697.77 1183.46,1694.13"/>
    </edge>
    <edge id=":1136374840_1" function="internal">
        <lane id=":1136374840_1_0" index="0" allow="pedestrian delivery bicycle" speed="5.56" length="20.89" shape="1189.32,1709.49 1188.54,1688.61"/>
    </edge>
    <edge id=":1136374840_2" function="internal">
        <lane id=":1136374840_2_0" index="0" allow="pedestrian delivery bicycle" speed="3.65" length="4.67" shape="1189.32,1709.49 1190.03,1708.23 1190.80,1707.77 1191.63,1708.12 1192.51,1709.25"/>
    </edge>
    <edge id=":1136374840_3" function="internal">
        <lane id=":1136374840_3_0" index="0" allow="pedestrian delivery bicycle" speed="5.56" length="20.76" shape="1191.74,1688.51 1192.51,1709.25"/>
    </edge>
    <edge id=":1136374840_4" function="internal">
        <lane id=":1136374840_4_0" index="0" allow="pedestrian delivery bicycle" speed="5.56" length="13.72" shape="1191.74,1688.51 1190.83,1692.45 1188.48,1695.32 1185.69,1696.19 1183.46,1694.13"/>
    </edge>
    <edge id=":1136374840_5" function="internal">
        <lane id=":1136374840_5_0" index="0" allow="pedestrian delivery bicycle" speed="3.65" length="4.67" shape="1191.74,1688.51 1190.98,1689.73 1190.20,1690.16 1189.38,1689.79 1188.54,1688.61"/>
    </edge>
    <edge id=":1136374840_6" function="internal">
        <lane id=":1136374840_6_0" index="0" allow="pedestrian delivery bicycle" speed="4.93" length="9.09" shape="1186.40,1692.88 1187.47,1694.82 1188.18,1694.75 1188.54,1692.68 1188.54,1688.61"/>
    </edge>
    <edge id=":1136374840_7" function="internal">
        <lane id=":1136374840_7_0" index="0" allow="pedestrian delivery bicycle" speed="5.56" length="17.54" shape="1186.40,1692.88 1188.13,1696.68 1190.05,1700.93 1191.68,1705.24 1192.51,1709.25"/>
    </edge>
    <edge id=":1136374840_8" function="internal">
        <lane id=":1136374840_8_0" index="0" allow="pedestrian delivery bicycle" speed="3.65" length="4.67" shape="1186.40,1692.88 1186.13,1694.30 1185.55,1694.98 1184.66,1694.92 1183.46,1694.13"/>
    </edge>
    <edge id=":1136374865_0" function="internal">
        <lane id=":1136374865_0_0" index="0" allow="pedestrian delivery bicycle" speed="5.91" length="7.92" shape="1240.10,1698.03 1239.31,1695.96 1238.06,1694.73 1236.35,1694.33 1234.19,1694.76"/>
    </edge>
    <edge id=":1136374865_1" function="internal">
        <lane id=":1136374865_1_0" index="0" disallow="tram rail_urban rail rail_electric rail_fast ship" speed="13.89" length="13.07" shape="1240.10,1698.03 1236.91,1685.35"/>
    </edge>
    <edge id=":1136374865_2" function="internal">
        <lane id=":1136374865_2_0" index="0" allow="pedestrian delivery bicycle" speed="9.72" length="10.32" shape="1243.74,1691.12 1240.81,1691.61 1238.86,1692.46 1236.97,1693.54 1234.19,1694.76"/>
    </edge>
    <edge id=":1136374865_3" function="internal">
        <lane id=":1136374865_3_0" index="0" disallow="tram rail_urban rail rail_electric rail_fast ship" speed="7.27" length="4.25" shape="1243.74,1691.12 1241.40,1690.90 1239.73,1690.01"/>
    </edge>
    <edge id=":1136374865_6" function="internal">
        <lane id=":1136374865_6_0" index="0" disallow="tram rail_urban rail rail_electric rail_fast ship" speed="7.27" length="5.54" shape="1239.73,1690.01 1239.47,1689.87 1237.98,1688.02 1236.91,1685.35"/>
    </edge>
    <edge id=":1136374865_4" function="internal">
        <lane id=":1136374865_4_0" index="0" allow="pedestrian delivery bicycle" speed="6.43" length="8.35" shape="1233.12,1691.75 1235.26,1690.67 1236.60,1689.25 1237.16,1687.48 1236.91,1685.35"/>
    </edge>
    <edge id=":1136374865_5" function="internal">
        <lane id=":1136374865_5_0" index="0" allow="pedestrian delivery bicycle" speed="3.65" length="4.67" shape="1233.12,1691.75 1234.52,1692.10 1235.16,1692.72 1235.05,1693.61 1234.19,1694.76"/>
    </edge>
    <edge id=":1136375005_0" function="internal">
        <lane id=":1136375005_0_0" index="0" allow="pedestrian delivery bicycle" speed="3.65" length="4.67" shape="1183.38,1693.94 1183.65,1692.53 1184.23,1691.85 1185.12,1691.90 1186.33,1692.70"/>
    </edge>
    <edge id=":1136375034_0" function="internal">
        <lane id=":1136375034_0_0" index="0" allow="pedestrian delivery bicycle" speed="5.56" length="6.77" shape="1233.74,1694.92 1231.87,1695.64 1230.66,1696.30 1229.57,1697.16 1228.08,1698.50"/>
    </edge>
    <edge id=":1136375034_1" function="internal">
        <lane id=":1136375034_1_0" index="0" allow="pedestrian delivery bicycle" speed="5.56" length="9.58" shape="1233.74,1694.92 1231.76,1695.27 1229.61,1695.00 1227.30,1694.09 1224.82,1692.55"/>
    </edge>
    <edge id=":1136375034_2" function="internal">
        <lane id=":1136375034_2_0" index="0" allow="pedestrian delivery bicycle" speed="3.65" length="4.67" shape="1233.74,1694.92 1232.34,1694.57 1231.69,1693.95 1231.81,1693.06 1232.67,1691.90"/>
    </edge>
    <edge id=":1136375034_3" function="internal">
        <lane id=":1136375034_3_0" index="0" allow="pedestrian delivery bicycle" speed="5.56" length="6.50" shape="1226.69,1689.96 1228.48,1691.10 1230.07,1691.81 1231.47,1692.07 1232.67,1691.90"/>
    </edge>
    <edge id=":1136375034_4" function="internal">
        <lane id=":1136375034_4_0" index="0" allow="pedestrian delivery bicycle" speed="5.56" length="10.42" shape="1226.69,1689.96 1229.05,1692.14 1230.07,1694.28 1229.75,1696.41 1228.08,1698.50"/>
    </edge>
    <edge id=":1136375034_5" function="internal">
        <lane id=":1136375034_5_0" index="0" allow="pedestrian delivery bicycle" speed="3.65" length="4.67" shape="1226.69,1689.96 1227.19,1691.31 1227.05,1692.19 1226.26,1692.61 1224.82,1692.55"/>
    </edge>
    <edge id=":1136375034_6" function="internal">
        <lane id=":1136375034_6_0" index="0" allow="pedestrian delivery bicycle" speed="4.50" length="4.41" shape="1225.95,1696.11 1226.52,1695.32 1226.52,1694.46 1225.95,1693.54 1224.82,1692.55"/>
    </edge>
    <edge id=":1136375034_7" function="internal">
        <lane id=":1136375034_7_0" index="0" allow="pedestrian delivery bicycle" speed="5.56" length="8.01" shape="1225.95,1696.11 1227.73,1694.53 1229.02,1693.51 1230.46,1692.75 1232.67,1691.90"/>
    </edge>
    <edge id=":1136375034_8" function="internal">
        <lane id=":1136375034_8_0" index="0" allow="pedestrian delivery bicycle" speed="3.65" length="4.67" shape="1225.95,1696.11 1227.38,1695.91 1228.21,1696.24 1228.44,1697.11 1228.08,1698.50"/>
    </edge>
    <edge id=":1136375079_0" function="internal">
        <lane id=":1136375079_0_0" index="0" allow="pedestrian delivery bicycle" speed="3.65" length="4.67" shape="1225.10,1610.03 1224.22,1611.17 1223.39,1611.52 1222.62,1611.06 1221.90,1609.81"/>
    </edge>
    <edge id=":1136375132_0" function="internal">
        <lane id=":1136375132_0_0" index="0" disallow="tram rail_urban rail rail_electric rail_fast ship" speed="13.89" length="8.82" shape="1225.05,1651.64 1222.60,1650.72 1220.91,1650.14 1219.18,1649.66 1216.64,1649.03"/>
    </edge>
    <edge id=":1136375132_1" function="internal">
        <lane id=":1136375132_1_0" index="0" allow="pedestrian delivery bicycle" speed="7.15" length="4.80" shape="1225.05,1651.64 1222.83,1650.38 1221.44,1648.62"/>
    </edge>
    <edge id=":1136375132_2" function="internal">
        <lane id=":1136375132_2_0" index="0" disallow="tram rail_urban rail rail_electric rail_fast ship" speed="3.65" length="2.34" shape="1225.05,1651.64 1224.22,1650.47 1224.13,1649.58"/>
    </edge>
    <edge id=":1136375132_9" function="internal">
        <lane id=":1136375132_9_0" index="0" allow="pedestrian delivery bicycle" speed="7.15" length="5.09" shape="1221.44,1648.62 1220.87,1646.37 1221.13,1643.62"/>
    </edge>
    <edge id=":1136375132_10" function="internal">
        <lane id=":1136375132_10_0" index="0" disallow="tram rail_urban rail rail_electric rail_fast ship" speed="3.65" length="2.34" shape="1224.13,1649.58 1224.80,1648.97 1226.20,1648.66"/>
    </edge>
    <edge id=":1136375132_3" function="internal">
        <lane id=":1136375132_3_0" index="0" allow="pedestrian delivery bicycle" speed="5.41" length="5.26" shape="1224.25,1644.32 1224.10,1645.83 1224.37,1647.05 1225.07,1648.00 1226.20,1648.66"/>
    </edge>
    <edge id=":1136375132_4" function="internal">
        <lane id=":1136375132_4_0" index="0" allow="pedestrian delivery bicycle" speed="6.84" length="10.27" shape="1224.25,1644.32 1223.25,1646.95 1221.65,1648.62 1219.44,1649.31 1216.64,1649.03"/>
    </edge>
    <edge id=":1136375132_5" function="internal">
        <lane id=":1136375132_5_0" index="0" allow="pedestrian delivery bicycle" speed="3.65" length="4.67" shape="1224.25,1644.32 1223.21,1645.31 1222.34,1645.53 1221.65,1644.96 1221.13,1643.62"/>
    </edge>
    <edge id=":1136375132_6" function="internal">
        <lane id=":1136375132_6_0" index="0" allow="pedestrian delivery bicycle" speed="5.02" length="5.03" shape="1217.40,1645.92 1218.78,1646.06 1219.86,1645.72 1220.64,1644.91 1221.13,1643.62"/>
    </edge>
    <edge id=":1136375132_7" function="internal">
        <lane id=":1136375132_7_0" index="0" disallow="tram rail_urban rail rail_electric rail_fast ship" speed="13.89" length="9.23" shape="1217.40,1645.92 1220.06,1646.58 1221.87,1647.08 1223.64,1647.69 1226.20,1648.66"/>
    </edge>
    <edge id=":1136375132_8" function="internal">
        <lane id=":1136375132_8_0" index="0" disallow="tram rail_urban rail rail_electric rail_fast ship" speed="3.65" length="2.34" shape="1217.40,1645.92 1218.38,1646.99 1218.57,1647.86"/>
    </edge>
    <edge id=":1136375132_11" function="internal">
        <lane id=":1136375132_11_0" index="0" disallow="tram rail_urban rail rail_electric rail_fast ship" speed="3.65" length="2.34" shape="1218.57,1647.86 1217.99,1648.54 1216.64,1649.03"/>
    </edge>
    <edge id=":1136375184_0" function="internal">
        <lane id=":1136375184_0_0" index="0" allow="pedestrian delivery bicycle" speed="5.56" length="0.13" shape="1219.70,1707.23 1219.82,1707.21"/>
    </edge>
    <edge id=":1136375184_1" function="internal">
        <lane id=":1136375184_1_0" index="0" allow="pedestrian delivery bicycle" speed="5.56" length="0.94" shape="1216.88,1705.95 1216.98,1705.69 1217.04,1705.51 1217.12,1705.34 1217.29,1705.12"/>
    </edge>
    <edge id=":1136375228_0" function="internal">
        <lane id=":1136375228_0_0" index="0" disallow="tram rail_urban rail rail_electric rail_fast ship" speed="13.89" length="9.42" shape="1219.32,1602.26 1228.71,1602.99"/>
    </edge>
    <edge id=":1136375228_1" function="internal">
        <lane id=":1136375228_1_0" index="0" allow="pedestrian delivery bicycle" speed="6.10" length="7.78" shape="1219.32,1602.26 1222.05,1602.65 1223.97,1603.38 1225.08,1604.45 1225.38,1605.85"/>
    </edge>
    <edge id=":1136375228_2" function="internal">
        <lane id=":1136375228_2_0" index="0" allow="pedestrian delivery bicycle" speed="6.07" length="7.80" shape="1222.19,1605.63 1222.68,1604.28 1223.93,1603.39 1225.94,1602.96 1228.71,1602.99"/>
    </edge>
    <edge id=":1136375228_3" function="internal">
        <lane id=":1136375228_3_0" index="0" allow="pedestrian delivery bicycle" speed="3.65" length="4.67" shape="1222.19,1605.63 1223.07,1604.49 1223.89,1604.14 1224.67,1604.60 1225.38,1605.85"/>
    </edge>
    <edge id=":1139806117_0" function="internal">
        <lane id=":1139806117_0_0" index="0" allow="pedestrian delivery bicycle" speed="3.65" length="4.67" shape="2742.01,1004.29 2743.43,1004.00 2744.28,1004.28 2744.56,1005.13 2744.29,1006.55"/>
    </edge>
    <edge id=":1239464386_0" function="internal">
        <lane id=":1239464386_0_0" index="0" allow="pedestrian delivery bicycle" speed="5.01" length="5.03" shape="1418.67,1968.98 1417.41,1969.56 1416.66,1970.41 1416.41,1971.51 1416.65,1972.87"/>
    </edge>
    <edge id=":1239464386_1" function="internal">
        <lane id=":1239464386_1_0" index="0" disallow="tram rail_urban rail rail_electric rail_fast ship" speed="13.89" length="6.19" shape="1414.68,1967.01 1416.65,1972.87"/>
    </edge>
    <edge id=":1239464664_0" function="internal">
        <lane id=":1239464664_0_0" index="0" allow="pedestrian delivery bicycle" speed="5.39" length="5.22" shape="1457.49,1973.11 1457.81,1971.85 1457.63,1970.69 1456.96,1969.64 1455.79,1968.71"/>
    </edge>
    <edge id=":1239464664_1" function="internal">
        <lane id=":1239464664_1_0" index="0" disallow="tram rail_urban rail rail_electric rail_fast ship" speed="13.89" length="6.21" shape="1457.49,1973.11 1459.97,1967.41"/>
        <lane id=":1239464664_1_1" index="1" disallow="tram rail_urban rail rail_electric rail_fast ship" speed="13.89" length="6.21" shape="1460.43,1974.38 1462.90,1968.69"/>
        <lane id=":1239464664_1_2" index="2" disallow="tram rail_urban rail rail_electric rail_fast ship" speed="13.89" length="6.21" shape="1463.36,1975.65 1465.84,1969.97"/>
    </edge>
    <edge id=":1513667414_0" function="internal">
        <lane id=":1513667414_0_0" index="0" disallow="tram rail_urban rail rail_electric rail_fast ship" speed="13.89" length="10.00" shape="2748.71,2053.77 2740.26,2048.55"/>
        <lane id=":1513667414_0_1" index="1" disallow="tram rail_urban rail rail_electric rail_fast ship" speed="13.89" length="10.00" shape="2750.45,2051.08 2741.87,2045.79"/>
    </edge>
    <edge id=":1513667414_2" function="internal">
        <lane id=":1513667414_2_0" index="0" disallow="tram rail_urban rail rail_electric rail_fast ship" speed="6.65" length="8.43" shape="2749.31,2044.15 2747.63,2045.78 2745.83,2046.60 2743.91,2046.60 2741.87,2045.79"/>
    </edge>
    <edge id=":1513667418_0" function="internal">
        <lane id=":1513667418_0_0" index="0" disallow="tram rail_urban rail rail_electric rail_fast ship" speed="6.23" length="9.05" shape="2814.77,1961.45 2813.56,1963.67 2813.42,1965.66 2814.35,1967.42 2816.36,1968.95"/>
    </edge>
    <edge id=":1513667418_1" function="internal">
        <lane id=":1513667418_1_0" index="0" disallow="tram rail_urban rail rail_electric rail_fast ship" speed="13.89" length="11.71" shape="2814.77,1961.45 2807.61,1970.71"/>
    </edge>
    <edge id=":1513667418_2" function="internal">
        <lane id=":1513667418_2_0" index="0" disallow="tram rail_urban rail rail_electric rail_fast ship" speed="13.89" length="11.71" shape="2806.14,1963.24 2816.36,1968.95"/>
    </edge>
    <edge id=":1513667418_3" function="internal">
        <lane id=":1513667418_3_0" index="0" disallow="tram rail_urban rail rail_electric rail_fast ship" speed="6.19" length="4.30" shape="2806.14,1963.24 2808.16,1964.78 2808.97,1966.34"/>
    </edge>
    <edge id=":1513667418_4" function="internal">
        <lane id=":1513667418_4_0" index="0" disallow="tram rail_urban rail rail_electric rail_fast ship" speed="6.19" length="4.75" shape="2808.97,1966.34 2809.07,1966.54 2808.89,1968.52 2807.61,1970.71"/>
    </edge>
    <edge id=":1513667424_0" function="internal">
        <lane id=":1513667424_0_0" index="0" disallow="tram rail_urban rail rail_electric rail_fast ship" speed="6.72" length="8.42" shape="2878.51,1884.34 2876.48,1883.67 2874.57,1883.79 2872.80,1884.70 2871.15,1886.41"/>
    </edge>
    <edge id=":1513667424_1" function="internal">
        <lane id=":1513667424_1_0" index="0" disallow="tram rail_urban rail rail_electric rail_fast ship" speed="13.89" length="9.97" shape="2878.51,1884.34 2869.63,1879.79"/>
        <lane id=":1513667424_1_1" index="1" disallow="tram rail_urban rail rail_electric rail_fast ship" speed="13.89" length="9.97" shape="2879.97,1881.49 2871.09,1876.95"/>
    </edge>
    <edge id=":1571530122_0" function="internal">
        <lane id=":1571530122_0_0" index="0" disallow="tram rail_urban rail rail_electric rail_fast ship" speed="13.89" length="9.45" shape="3278.67,1982.83 3269.90,1986.43"/>
        <lane id=":1571530122_0_1" index="1" disallow="tram rail_urban rail rail_electric rail_fast ship" speed="13.89" length="9.45" shape="3277.44,1979.88 3268.71,1983.46"/>
    </edge>
    <edge id=":1571530122_2" function="internal">
        <lane id=":1571530122_2_0" index="0" disallow="tram rail_urban rail rail_electric rail_fast ship" speed="6.19" length="7.85" shape="3277.44,1979.88 3274.83,1980.76 3272.78,1980.97 3271.28,1980.51 3270.33,1979.38"/>
    </edge>
    <edge id=":1571530122_3" function="internal">
        <lane id=":1571530122_3_0" index="0" disallow="tram rail_urban rail rail_electric rail_fast ship" speed="6.03" length="7.91" shape="3273.23,1978.04 3273.48,1979.52 3272.81,1980.91 3271.22,1982.23 3268.71,1983.46"/>
    </edge>
    <edge id=":1571530122_4" function="internal">
        <lane id=":1571530122_4_0" index="0" disallow="tram rail_urban rail rail_electric rail_fast ship" speed="3.65" length="4.67" shape="3273.23,1978.04 3273.01,1979.46 3272.45,1980.16 3271.56,1980.14 3270.33,1979.38"/>
    </edge>
    <edge id=":1625427979_0" function="internal">
        <lane id=":1625427979_0_0" index="0" allow="pedestrian delivery bicycle" speed="4.85" length="4.52" shape="2043.98,2495.00 2043.28,2493.72 2042.49,2492.92 2041.60,2492.62 2040.62,2492.80"/>
    </edge>
    <edge id=":1625427979_1" function="internal">
        <lane id=":1625427979_1_0" index="0" allow="pedestrian delivery bicycle" speed="5.56" length="8.95" shape="2043.98,2495.00 2040.60,2486.71"/>
    </edge>
    <edge id=":1625427979_2" function="internal">
        <lane id=":1625427979_2_0" index="0" allow="pedestrian delivery bicycle" speed="3.65" length="4.67" shape="2043.98,2495.00 2044.25,2493.58 2044.83,2492.90 2045.72,2492.95 2046.92,2493.74"/>
    </edge>
    <edge id=":1625427979_3" function="internal">
        <lane id=":1625427979_3_0" index="0" allow="pedestrian delivery bicycle" speed="4.33" length="3.58" shape="2046.69,2490.44 2046.32,2490.78 2046.24,2491.44 2046.44,2492.43 2046.92,2493.74"/>
    </edge>
    <edge id=":1625427979_4" function="internal">
        <lane id=":1625427979_4_0" index="0" disallow="tram rail_urban rail rail_electric rail_fast ship" speed="22.22" length="6.61" shape="2046.69,2490.44 2040.62,2492.80"/>
        <lane id=":1625427979_4_1" index="1" disallow="tram rail_urban rail rail_electric rail_fast ship" speed="22.22" length="6.61" shape="2045.62,2487.42 2039.39,2489.85"/>
    </edge>
    <edge id=":1625427979_6" function="internal">
        <lane id=":1625427979_6_0" index="0" allow="pedestrian delivery bicycle" speed="5.34" length="5.61" shape="2045.62,2487.42 2043.74,2487.93 2042.28,2487.98 2041.23,2487.58 2040.60,2486.71"/>
    </edge>
    <edge id=":1625427979_7" function="internal">
        <lane id=":1625427979_7_0" index="0" allow="pedestrian delivery bicycle" speed="5.56" length="8.84" shape="2043.58,2485.56 2046.92,2493.74"/>
    </edge>
    <edge id=":1625427979_8" function="internal">
        <lane id=":1625427979_8_0" index="0" allow="pedestrian delivery bicycle" speed="5.69" length="6.54" shape="2043.58,2485.56 2043.64,2486.65 2042.96,2487.73 2041.54,2488.79 2039.39,2489.85"/>
    </edge>
    <edge id=":1625427979_9" function="internal">
        <lane id=":1625427979_9_0" index="0" allow="pedestrian delivery bicycle" speed="3.65" length="4.67" shape="2043.58,2485.56 2043.27,2486.96 2042.67,2487.63 2041.78,2487.54 2040.60,2486.71"/>
    </edge>
    <edge id=":1625427984_0" function="internal">
        <lane id=":1625427984_0_0" index="0" allow="pedestrian delivery bicycle" speed="5.56" length="9.03" shape="2040.52,2486.52 2037.19,2478.13"/>
    </edge>
    <edge id=":1625427984_1" function="internal">
        <lane id=":1625427984_1_0" index="0" allow="pedestrian delivery bicycle" speed="5.52" length="5.90" shape="2040.52,2486.52 2040.39,2485.39 2040.89,2484.30 2042.02,2483.26 2043.78,2482.28"/>
    </edge>
    <edge id=":1625427984_2" function="internal">
        <lane id=":1625427984_2_0" index="0" allow="pedestrian delivery bicycle" speed="3.65" length="4.67" shape="2040.52,2486.52 2040.84,2485.12 2041.44,2484.46 2042.33,2484.54 2043.51,2485.37"/>
    </edge>
    <edge id=":1625427984_3" function="internal">
        <lane id=":1625427984_3_0" index="0" allow="pedestrian delivery bicycle" speed="4.38" length="3.64" shape="2040.16,2476.93 2040.75,2478.19 2041.33,2479.01 2041.89,2479.41 2042.44,2479.37"/>
    </edge>
    <edge id=":1625427984_4" function="internal">
        <lane id=":1625427984_4_0" index="0" allow="pedestrian delivery bicycle" speed="5.56" length="9.08" shape="2040.16,2476.93 2043.51,2485.37"/>
    </edge>
    <edge id=":1625427984_5" function="internal">