<?xml version="1.0" encoding="UTF-8"?>

<!-- generated on Wed May 13 19:49:07 2020 by Eclipse SUMO duarouter Version 1.6.0
<configuration xmlns:xsi="http://www.w3.org/2001/XMLSchema-instance" xsi:noNamespaceSchemaLocation="http://sumo.dlr.de/xsd/duarouterConfiguration.xsd">

    <input>
        <net-file value="erlangen.net.xml"/>
        <route-files value="trips.trips.xml"/>
    </input>

    <output>
        <output-file value="erlangen.rou.xml"/>
        <alternatives-output value="erlangen.rou.alt.xml"/>
    </output>

    <time>
        <begin value="0"/>
        <end value="60.0"/>
    </time>

    <report>
        <no-warnings value="true"/>
        <ignore-errors value="true"/>
        <no-step-log value="true"/>
    </report>

</configuration>
-->

<routes xmlns:xsi="http://www.w3.org/2001/XMLSchema-instance" xsi:noNamespaceSchemaLocation="http://sumo.dlr.de/xsd/routes_file.xsd">
    <vehicle id="0" depart="0.00">
        <route edges="24650053 427643915 427643918#0 425161053#0 425161053#1 534548502 431771841#0 431771841#1 431771841#2 24672301 24672302 24672303 24672316#0 24672316#1 24672316#2 24672316#3 24559890#1 667195599#3"/>
    </vehicle>
    <vehicle id="1" depart="1.00">
        <route edges="421491565#1 421491565#2 425391225 531952880 531952879 531952878 531952877 291083095#0 291083095#1 531952876 291083090 531953023 385513374 291081716#0 291081716#1 24406756#0 24406756#1 532137775#0 532137775#1 426245385#0 426245385#1 426245385#2 424798277#0 424798277#1 431723954#7 431723954#8 770749817 431723954#0 431723954#1 531935304#0"/>
    </vehicle>
    <vehicle id="2" depart="2.00">
        <route edges="385513380 428274873 532188879 532184438 532184443 432198818 415999038#0 415999038#1 415999038#2 415999038#3 424184688#0 424184688#1 424184688#2 424184688#3 424184689#0 424184689#1 427691216#0 427691216#1 427691216#2 409673591#2"/>
    </vehicle>
    <vehicle id="3" depart="3.00">
        <route edges="24612002#0 -24612002#0 561831375#0 561831375#1 35972437#1 35972437#2 420397515 420397514 308669835#0 308669835#1 423002225 24611821#0 531904593 35972439#0 35972439#1 538952545 538952544 415999042#0 415999042#1 385513376#1 385513376#2 385513376#3 31245582"/>
    </vehicle>
    <vehicle id="4" depart="4.00">
        <route edges="308669836 423040067 423032020#0 423032020#1 538952547#0 538952547#1 538959951 150316488 150316490#0 150316490#1 531908091 531908090 531908092#0 531908092#1 95606290#0 95606290#1 356481622 24650047#1 538783729 534548508 425389841#0 425389841#1 534548506 107938335#0 107938335#1 107938320#0 107938320#1 107938320#2 534548505 534548504 534548502 431771841#0 431771841#1 431771841#2 24672301 24672302 24672303 24672316#0 24672316#1 24672316#2 24672316#3 24559890#1 24559890#2 24559890#3 24559890#4 24666196#0 24666196#1 24666196#2"/>
    </vehicle>
    <vehicle id="5" depart="5.00">
        <route edges="-24611997#1 -24611997#0 370241718#9 370241718#10 370241718#11 423002225 24611821#0 24611821#1 531908093 431996150#0 431996150#1 421491565#0 421491565#1"/>
    </vehicle>
    <vehicle id="6" depart="6.00">
        <route edges="539419561#1 24361400#0 24361400#1 24361400#2 24361400#3 427843246 85865018#0 85865018#1 85865018#2 85865018#3 85865018#4 85865018#5 85865018#6 85865018#7 532182104 532184445 532184444 532184441 532184439 415999035#0 415999035#1 415999035#2 415999035#3 415999035#4 415999035#5 415999035#6 415999035#7 420385367#0 420385367#1"/>
    </vehicle>
    <vehicle id="7" depart="7.00">
        <route edges="24650942#1 -24650942#1 -24650942#0 310525155 37017374#1 308669837#0 308669837#1 308669837#2"/>
    </vehicle>
    <vehicle id="8" depart="8.00">
        <route edges="24361580 425369970#1 425369970#2 424804974#0 24650034 531959844 531959841 420401914 85865018#6 85865018#7 532182104 532184445 532184444 532184441 532188875 532182103#0 532182103#1 532184761 385513375#0 385513375#1 385513374 291081716#0 291081716#1 24406756#0 24406756#1 532137775#0 532137775#1 426245385#0 -24360708 424798280#2 420385368#0 420385368#1 532138882 532138881#0 532138881#1 532138880#0 532138880#1 385513379"/>
    </vehicle>
    <vehicle id="9" depart="9.00">
        <route edges="538952543#0 24361001#0 370241718#7 415999040#1 538952545 538952544 415999043#0 24360577#0 36826295#1 415999044"/>
    </vehicle>
    <vehicle id="10" depart="10.00">
        <route edges="-24611998#2 -24611998#1 -24611998#0 370241718#10 370241718#11 423002225 24611821#0 24611821#1 531908093 431996150#0 431996150#1 538959951 150316488 150316490#0 150316490#1 531908091 531908090 531908092#0 531908092#1 95606290#0 95606290#1 356481622 24650047#1 538783729 534548508 425389841#0 425389841#1 534548506 107938335#0 107938335#1 107938320#0 107938320#1 107938320#2 534548505 534548504 534548502 431771841#0 431771841#1 431771841#2 424792137 24650209 534542787 24650210 24650059#2 24650059#3 50502934 431737440 24663657#0"/>
    </vehicle>
    <vehicle id="11" depart="11.00">
        <route edges="24652767 431751173 24650943#2 24650943#3 220063159 431768085 431768089#0 431768089#1 431718580#0 431718580#1 24650211 420853985 50502913#0 50502913#1 290167854 290167856 150166750 432805066 427129776 427125129 428066862#0 428066862#1 538784511#0 538784511#1 531952885 531952884 291083101 531952883 531952882 531952881 291083098#0 291083098#1 291083098#2 416005331#0 416005331#1 416005328 531902813 531902814 531904596 308669838"/>
    </vehicle>
    <vehicle id="12" depart="12.00">
        <route edges="37315584#6 420397519#0 420397519#1 420397519#2 -24612004 24612003#1 -426166042"/>
    </vehicle>
    <vehicle id="13" depart="13.00">
        <route edges="302701026#3 420854026 302701031 426488275 432420736#0 432420736#1 24672324 431768088#0 431768088#1 431768088#2 431768088#3 431768088#4 431768088#5 431768088#6 24672251#3 24652781#1 24652781#2 432198810#0 24652780#0"/>
    </vehicle>
    <vehicle id="14" depart="14.00">
        <route edges="538952543#0 538952543#1 431723954#1 431723954#2 431723954#3 431723954#4 431723954#5 431723954#6 431723954#7 24212577#0 24212577#1 532187517 532187512 532187506 385513378#0 385513378#1 385513378#2 385513380 428274873 532188879 532184438 532184442 432198819 538947358 291263660#0"/>
    </vehicle>
    <vehicle id="15" depart="15.00">
        <route edges="415999038#0 415999038#1 415999038#2 415999038#3 424184688#0 424184688#1 424184688#2 424184688#3 424184689#0 424184689#1 427691216#0 427691216#1 427691216#2 427691216#3 427691216#4 427691216#5 427691216#6 427691216#7 534548505 534548504 534548502 431771841#0 431771841#1 431771841#2 24672301 24672302 24672303 24672316#0 24672316#1 24672316#2 24672316#3 24672316#4 534516110 534516109 534516107 534516106 24672251#0 24672251#1 24672251#2 431768088#7 24559802#5 106941332"/>
    </vehicle>
    <vehicle id="16" depart="16.00">
        <route edges="24652778#0 24652778#1 24672251#2 24672251#3 24672251#4 24672251#5 287140829#1 302701817#0 302701817#1 302701817#2 302701817#3 302701817#4 302701817#5 302701817#6 24652769 24652768#1 128476620#0 128476620#1"/>
    </vehicle>
    <vehicle id="17" depart="17.00">
        <route edges="531937186#1 531937185 41374099#0 41374099#1 540428272 531937184 531937183#0 531937183#1 531937183#2 531937183#3 431723954#3 431723954#4 431723954#5 431723954#6 431723954#7 431723954#8 770749817 531908097 531908096 538952542 531908095 160695432#0 160695432#1 531908094 531908093 431996150#0 431996150#1 538959951 150316488 150316490#0 150316490#1 531908091 531908090 531908092#0 531908092#1 95606290#0 95606290#1 356481622 24650047#1 538783729 534548508 425389841#0 425389841#1 534548506 107938335#0 107938335#1 107938320#0 107938320#1 107938320#2 534548505 534548504 534548502 431771841#0 431771841#1 431771841#2 424792137 24650209 534542787 24650210 24650059#2 24650059#3 50502934 431737440 405801542#0 405801542#1 24652223#0"/>
    </vehicle>
    <vehicle id="18" depart="18.00">
        <route edges="24652213#1 532163450 431914696 363246361 431914698 431949568 415950908#0 415950908#1 427636275#0 427636275#1 427636275#2 427636275#3 421924783#0 421924783#1 523750725 421924785 85865018#0 85865018#1 427650491 291263660#1 24361373#0"/>
    </vehicle>
    <vehicle id="19" depart="19.00">
        <route edges="-308669835#0 308669835#0 308669837#0 308669837#1 308669837#2 415999041#0"/>
    </vehicle>
    <vehicle id="20" depart="20.00">
        <route edges="24611824#5 427635471#2 427635471#3 41374099#0 41374099#1 540428272 531937184 531937183#0 531937183#1 531937183#2 531937183#3 431723954#3 431723954#4 431723954#5 24360723#0 24360723#1 424183874 424798280#0 424798280#1 424798280#2 420385368#0 420385368#1 532138882 532138881#0 532138881#1 532138880#0 532138880#1 24360571#0 24360571#1 24360571#2 24360571#3 24360571#4 426225160#0"/>
    </vehicle>
    <vehicle id="21" depart="21.00">
        <route edges="24650081#0 24650081#1 431722531#1 31016404 24650053 427643915 427643918#0 427643918#1 427129776 427125129 428066862#0 428066862#1 538784511#0 538784511#1 531952885 531952884 291083101 531952883 531952882 531952881 425391225 531952880 531952879 531952878 531952877 291083095#0 291083095#1 531952876 291083090 531953023 385513374 291081716#0 291081716#1 24406756#0 24406756#1 532137775#0 532137775#1 426245385#0 426245385#1 426245385#2 424798278 -24419185 -531939267 -531939266 -531938897 -531938898 240659577#1 24650024 531912915 71839143"/>
    </vehicle>
    <vehicle id="22" depart="22.00">
        <route edges="308669836 423040067 423032020#0 423032020#1 538952547#0 538952547#1 421491565#0 421491565#1 421491565#2 420857020#0 420857020#1 247705007 531955424 291083099 531955423 291083102#2 427691216#4 427691216#5"/>
    </vehicle>
    <vehicle id="23" depart="23.00">
        <route edges="431766086#1 431766089#0 431766089#1 420861076 150166755 420861082#0 420861082#1 150166760 150166749#0 150166749#1 150166749#2 150166749#3 150166749#4 107938331 107938380#0 107938380#1 107938380#2 291083105 531952886 531952885 531952884 291083101 531952883 531952882 531952881 425391225 531952880 531952879 531952878 531952877 291083095#0 291083095#1 531952876 291083090 531953023 385513374 291081716#0 291081716#1 24406756#0 24406756#1 532137775#0 532137775#1 426245385#0 426245385#1 426245385#2 424798278 -24419185 -531939267 -531939266 -531938897 -531938898"/>
    </vehicle>
    <vehicle id="24" depart="24.00">
        <route edges="238009794#4 534510770 534510764 534516116#0 534516116#1 534516115 534516114#0 534516114#1 534516114#2 24672316#0 24672316#1 24672316#2 24672316#3 24559890#1 24559890#2 24559890#3 24559890#4 24666196#0"/>
    </vehicle>
    <vehicle id="25" depart="25.00">
        <route edges="24650943#0 24650943#1 24650943#2 24650943#3 220063159 431768085 431768089#0 431768089#1 431718580#0 431718580#1 24650211 420853985 50502913#0 50502913#1 290167854 290167856 150166750 432805066 427129776 427125129 428066862#0 428066862#1 538784511#0 538784511#1 531952885 531952884 291083101 531952883 531952882 531952881 291083098#0 291083098#1 291083098#2 416005331#0 416005331#1 416005329#0 416005329#1 416005329#2 416005329#3 37017374#0 37017374#1 -308669835#0 -420397514 -35972438#4 -35972438#3 24611824#3 24611824#4 24611824#5"/>
    </vehicle>
    <vehicle id="26" depart="26.00">
        <route edges="385513379 532139226 385513380 428274872#0 428274872#1 420385367#1 291083107#0 291083107#1 426245385#0 426245385#1 426245385#2 424798277#0 424798277#1 431723954#7 24212577#0 24360711"/>
    </vehicle>
    <vehicle id="27" depart="27.00">
        <route edges="421565755 291083092#0 291083092#1 531955430 291083094#0 291083094#1 291083094#2 531955429 531955428 531955427 247705006 531955426 531955425 247705007 531955424 291083099 531955423 531955422 531955421 531955420 531955419 425382683#0 425382683#1 427125130 24650050#0 24650050#1 24650050#2 24650050#3 534433675 534433671 -71498398#1 -71498398#0 -356064688 -107938398 -420854021#1 -420854021#0 368784885 24360219 31529455#0 31529455#1 431914698 431949568 415950908#0 415950908#1 427636275#0 427636275#1"/>
    </vehicle>
    <vehicle id="28" depart="28.00">
        <route edges="421924785 85865018#0 85865018#1 85865018#2 85865018#3 85865018#4 85865018#5 85865018#6 85865018#7 532182104 532184445 532184444 532184441 532188875 532182103#0 532182103#1 532184761 385513375#0 385513375#1 385513374 291081716#0 291081716#1 24406756#0 24406756#1 532137775#0 532137775#1 426245384 532137771"/>
    </vehicle>
    <vehicle id="29" depart="29.00">
        <route edges="24419185 424183874 428048489#3 424798277#0 424798277#1 431723954#7 431723954#8 770749817 531908097 531908096 538952542 531908095 160695432#0 160695432#1 531908094 531908093 431996150#0 431996150#1 538959951 150316488 150316490#0 150316490#1 531908091 531908090 531908092#0 531908092#1 95606290#0 95606290#1 356481622 24650047#1 538783729 534548508 425389841#0 425389841#1 534548506 107938335#0 107938335#1 107938320#0 107938320#1 107938320#2 534548505 534548504 534548502 431771841#0 431771841#1 431771841#2 424792137 24650209"/>
    </vehicle>
    <vehicle id="30" depart="30.00">
        <route edges="291083104#1 24650041#2 24611815#1 24611815#2 291083101 531952883 531952882 531952881 425391225 531952880 531952879 291083096#0 291083096#1 24360380#0 24360702#2 24360702#3 24360702#4 138055545#1"/>
    </vehicle>
    <vehicle id="31" depart="31.00">
        <route edges="-35972438#1 35972438#1 35972438#2 35972438#3 35972438#4 420397514 308669835#0 308669835#1 423002225 24611821#0 24611821#1 531908093 431996150#0 431996150#1 538959951 150316488 150316490#0 150316490#1 531908091 531908090 531908092#0 531908092#1 95606290#0 95606290#1 356481622 24650047#1 538783729 534548508 425389841#0 425389841#1 534548506 107938335#0 107938335#1 107938320#0 107938320#1 107938320#2 534548505 534548504 534548502 431771841#0 431771841#1 431771841#2 24672301 24672302 24672303 24672316#0 24672316#1 24672316#2 24672316#3 24672316#4 534516110 534516109 534516107 534516106 24672251#0 24672251#1 24672251#2 24672251#3 24672251#4 24672251#5 287140829#1 302701817#0"/>
    </vehicle>
    <vehicle id="32" depart="32.00">
        <route edges="31960418#1 31960418#2 24650045#0 24650045#1 426488282 432420736#0 432420736#1 24672324 431768088#0 431768088#1 431768088#2 431768088#3 431768088#4 431768088#5 431768088#6 24672251#3 24652781#1 24652781#2 432198810#0 432198810#1 431976822#2 24559802#2"/>
    </vehicle>
    <vehicle id="33" depart="33.00">
        <route edges="415999042#0 420385363#0 420385363#1 420385363#2 24361001#0 24361001#1 24361001#2 24361001#3 427635471#0 427635471#1 427635471#2 531935300 531935299 531935297 531935296 -24611999#3 -24611999#2 -31922086#0"/>
    </vehicle>
    <vehicle id="34" depart="34.00">
        <route edges="531952884 291083101 531952883 291083100#0 291083100#1"/>
    </vehicle>
    <vehicle id="35" depart="35.00">
        <route edges="24617779#1 561831375#0 561831375#1 35972437#1 35972437#2 420397515 420397514 308669835#0 308669835#1 423002225 24611821#0 24611821#1 531908093 30480341#1 30480341#2 30480341#3 30480341#4 291083096#0 291083096#1 24360380#0 24360380#1 424184691#0 424184691#1 424184691#2 424184691#3 424184690#0 427888491#2 427888491#3 427692680 422268369 532182102 538947358 291263660#0"/>
    </vehicle>
    <vehicle id="36" depart="36.00">
        <route edges="247705006 531955426 531955425 -427692678#1 427692678#1 -420857020#1 -420857020#0 291083098#0 291083098#1 291083098#2 416005331#0 416005331#1 416005329#0 416005329#1 416005329#2 416005329#3 37017374#0 37017374#1 -308669835#0 -420397514 -35972438#4 -35972438#3 -35972438#2 -35972438#1 -35972438#0 431996149 24611809 432786979 431938273 531937192 531937191 420397506#1"/>
    </vehicle>
    <vehicle id="37" depart="37.00">
        <route edges="24652770 302701817#6 302701817#7 220063159 431768085 431768089#0 431768089#1 431718580#0 431718580#1 24650211 420853985 50502913#0 50502913#1 290167854 290167856 150166750 432805066 427129776 427125129 428066863#0 428066863#1 428066863#2 427692679#0 427692679#1 427888490"/>
    </vehicle>
    <vehicle id="38" depart="38.00">
        <route edges="24361373#0 24360389 425369970#0 425369970#1 425369970#2 424804974#0 24650034 531959844 531959841 420401914 160695132 422264046#0 422264046#1 422264046#2 422264046#3 422264046#4 422264046#5 422264046#6 422264046#7 409673592 425161101 425161060#0 425161060#1 425161053#0 425161053#1 534548502 431771841#0 431771841#1 431771841#2 24672301 24672302 24672303 24672316#0 -534433696 534433687 534433680 534433684#0 534516113"/>
    </vehicle>
    <vehicle id="39" depart="39.00">
        <route edges="24650038#1 426225161#0 426225161#1 426225163#0 426225163#1 426225163#2 532184443 432198818 24360576 421565755 291083093#0 291083093#1 36826295#0"/>
    </vehicle>
    <vehicle id="40" depart="40.00">
        <route edges="425391225 291083097#2 291083097#3 291083097#4 291083097#5 291083097#6 531902814 531904596 308669838 -423002225 -308669835#1 -308669835#0 -420397514 -35972438#4 -35972438#3 -35972438#2 -35972438#1 -35972438#0 431996149 24611809"/>
    </vehicle>
    <vehicle id="41" depart="41.00">
        <route edges="-24611995#2 -540428269 531937184 531937183#0 531937183#1 531937183#2 531937183#3 431723954#3 431723954#4 431723954#5 24360723#0 -420385374#0 24360707#0 24360707#1 24360707#2 24360707#3 24406756#0 24406756#1 532137775#0 532137775#1 426245385#0"/>
    </vehicle>
    <vehicle id="42" depart="42.00">
        <route edges="531955420 531955419 425382683#0 425382683#1 427125129 428066862#0 428066862#1 538784511#0 538784511#1 531952885 531952884 291083101 531952883 531952882 531952881 425391225 531952880 531952879 531952878 531952877 291083095#0 291083095#1 531952876 291083090 531953023 385513374 291081716#0 291081716#1 24406756#0 24406756#1 532137775#0 532137775#1 426245385#0 426245385#1"/>
    </vehicle>
    <vehicle id="43" depart="43.00">
        <route edges="385513376#0 -143603184 532187512 532187506 385513378#0 385513378#1 385513378#2 385513377 291081710#0 291081710#1 531955432 422271119 531955431 291083092#0 291083092#1 531955430 291083094#0 291083094#1 291083094#2 531955429 531955428 531955427 247705006 531955426 531955425 247705007"/>
    </vehicle>
    <vehicle id="45" depart="45.00">
        <route edges="415999041#7 427909516#1 370241718#0 370241718#1 531937183#2 531937183#3 431723954#3 431723954#4 431723954#5 431723954#6 431723954#7 431723954#8 770749817 531908097 531908096 538952542 531908095 160695432#0 160695432#1 531908094 531908093 30480341#1 30480341#2 30480341#3 30480341#4 291083096#0 291083096#1 24360380#0 24360702#2 24360702#3 24611808#2 30480344#0 30480344#1"/>
    </vehicle>
    <vehicle id="46" depart="46.00">
        <route edges="24611815#0 24650041#3 24650041#4 24650041#5 24650041#6 24650041#7 24650041#8"/>
    </vehicle>
    <vehicle id="47" depart="47.00">
        <route edges="220063160#1 432822448 24663657#0 24663657#1 431751173 24650943#2 24650943#3 220063159 431768087#0 431768087#1 431768087#2 431768087#3 431768087#4 24652765#0"/>
    </vehicle>
    <vehicle id="48" depart="48.00">
        <route edges="24360571#1 24360571#2 415999035#6 415999035#7 420385367#0 420385367#1 291083107#0 291083107#1 426245385#0 426245385#1 426245385#2 424798277#0 424798277#1 431723954#7 431723954#8 770749817 431723954#0 431723954#1 531935304#0 531935304#1 531935304#2 531935304#3 531935304#4 531935303 531935302 531935301 531935300 531935299 531935297 531935296 -24611999#3 -24611999#2 -24611999#1 -31245585#0"/>
    </vehicle>
    <vehicle id="49" depart="49.00">
        <route edges="24612003#0 24612003#1 360617341#0 35972438#1 35972438#2 35972438#3 35972438#4 420397514 308669835#0 308669835#1 423002225 24611821#0 24611821#1 531908093 30480341#1 30480341#2 30480341#3 30480341#4 291083096#0 291083096#1 24360380#0 24360380#1 424184691#0 424184691#1 424184691#2 424184691#3 424184690#0 427888491#2 427888491#3 427692680 422268369 532182102 538947358 291263660#0 291263660#1 24361373#0 24360389 425369970#0 -24361580"/>
    </vehicle>
    <vehicle id="50" depart="50.00">
        <route edges="431722531#0 431722531#1 31016404 24650053 427643915 427643918#0 427643918#1 427129776 427125129 428066862#0 428066862#1 538784511#0 538784511#1 291083104#0 291083104#1 291083104#2 531908092#1 24650060 255733601 425195362 24650062"/>
    </vehicle>
    <vehicle id="51" depart="51.00">
        <route edges="24360702#0 24360702#1 24360702#2 24360386#3"/>
    </vehicle>
    <vehicle id="52" depart="52.00">
        <route edges="31018706 534433702 534433698 534433692#0 534433692#1 534433690 534433687 534433680 534433684#0 534516113 534516112 50502913#1 290167854 290167856 150166750 432805066 427129776 427125129 428066863#0 428066863#1 428066863#2 427692679#0 427692679#1 427888491#0 89383700#1 422264046#3"/>
    </vehicle>
    <vehicle id="53" depart="53.00">
        <route edges="531955420 531955419 425382683#0 425382683#1 427125129 428066862#0 428066862#1 538784511#0 538784511#1 531952885 531952884 291083101 531952883 531952882 531952881 425391225 531952880 531952879 531952878 531952877 291083095#0 291083095#1 531952876 291083090 531953023 385513374 291081716#0 291081716#1 24406756#0 24406756#1 532137775#0 532137775#1 426245385#0 426245385#1 426245385#2 424798277#0 424798277#1 431723954#7 431723954#8 770749817 431723954#0 431723954#1 431723954#2 431723954#3 431723954#4 431723954#5 24360723#0"/>
    </vehicle>
    <vehicle id="54" depart="54.00">
        <route edges="534527526#1 24652771 547641091 431740482 431740484 149813030 544765654 24652209 431981410 426387471 368784884 24360219 31529455#0 31529455#1 431914698 431949568 415950908#0 415950908#1 427636275#0 427636275#1 427636275#2 427636275#3 421924783#0 421924783#1 523750725 421924785 85865018#0 85865018#1 85865018#2 85865018#3 85865018#4 85865018#5 85865018#6 85865018#7 532182104 532184445 532184444 432198818"/>
    </vehicle>
    <vehicle id="55" depart="55.00">
        <route edges="-420397506#1 -420397506#0 531935292 426166044 432035070 35972438#0 35972438#1 35972438#2 35972438#3 35972438#4 420397514 308669835#0 308669835#1 423002225 24611821#0 24611821#1 531908093 431996150#0 431996150#1 538959951 150316488 150316490#0 150316490#1 531908091 531908090 531908092#0 531908092#1 95606290#0 95606290#1 356481622 24650047#1 538783729 534548508 425389841#0 425389841#1 534548506 107938335#0 107938335#1 107938320#0 107938320#1 107938320#2 534548505 534548504 534548502 431771841#0 431771841#1 431771841#2 24672301 24672302 24672303 24672316#0 24672316#1 24652759#0 24652759#1 24652759#2 431768087#4"/>
    </vehicle>
    <vehicle id="56" depart="56.00">
        <route edges="310525155 558053802 423032020#0 423032020#1 538952547#0 538952547#1 538959951 150316488 150316490#0 150316490#1 531908091 531908090 531908092#0 531908092#1 95606290#0 95606290#1 356481622 24650047#1 538783729 534548508 425389841#0 425389841#1 534548506 107938335#0 107938335#1 107938320#0 107938320#1 107938320#2 534548505"/>
    </vehicle>
    <vehicle id="57" depart="57.00">
        <route edges="431771498#0 420841674 431914696 363246361 431914699 302701029#0 302701029#1 302701029#2 107938369#0 107938369#1 150316498#0"/>
    </vehicle>
    <vehicle id="58" depart="58.00">
        <route edges="160695132 425205867#1 424184690#3 85865018#2 85865018#3 85865018#4 85865018#5 -420401914 291263660#0"/>
    </vehicle>
    <vehicle id="59" depart="59.00">
        <route edges="35972439#1 538952543#0 24361001#0 24361001#1 24361001#2 24361001#3 427635471#0 427635471#1 427635471#2 531935300 531935299 531935297 531935296 -24611999#3 -24611999#2 -31922086#0"/>
    </vehicle>
   <vehicle id="60" depart="60.00">
        <route edges="150166760 150166749#0 150166749#1 150166749#2 150166749#3 150166749#4 107938331 107938380#0 107938380#1 107938380#2 291083105 531952886 531952885 531952884 291083101 531952883 531952882 531952881 425391225 531952880 531952879 531952878 531952877 291083095#0 291083095#1 531952876 291083090 531953023 385513374 291081716#0 291081716#1 24406756#0 24406756#1 532137775#0 532137775#1 "/>
    </vehicle>
</routes>
