<?xml version="1.0" encoding="UTF-8"?>
<!-- generated on 2020-05-20 19:18:10.497675 by randomTrips.py UNKNOWN
  options: -n erlangen.net.xml -r erlangen.rou.xml -e 140 -l
-->
<routes xmlns:xsi="http://www.w3.org/2001/XMLSchema-instance" xsi:noNamespaceSchemaLocation="http://sumo.dlr.de/xsd/routes_file.xsd">
    <trip id="0" depart="0.00" from="415999044" to="431773479#0"/>
    <trip id="1" depart="1.00" from="24361011#1" to="-24611995#4"/>
    <trip id="2" depart="2.00" from="291083103#0" to="173516435"/>
    <trip id="3" depart="3.00" from="360617341#2" to="-24681474"/>
    <trip id="4" depart="4.00" from="24650040#6" to="510873599"/>
    <trip id="5" depart="5.00" from="24211848#2" to="24652759#4"/>
    <trip id="6" depart="6.00" from="31921706#2" to="425382683#1"/>
    <trip id="7" depart="7.00" from="24361011#1" to="-24672270"/>
    <trip id="8" depart="8.00" from="287140829#1" to="421491565#0"/>
    <trip id="9" depart="9.00" from="424184690#0" to="415999041#7"/>
    <trip id="10" depart="10.00" from="534510810" to="427691216#5"/>
    <trip id="11" depart="11.00" from="24559890#4" to="24650049"/>
    <trip id="12" depart="12.00" from="85865018#5" to="-409675309"/>
    <trip id="13" depart="13.00" from="24360702#4" to="24559926"/>
    <trip id="14" depart="14.00" from="531955421" to="24361400#0"/>
    <trip id="15" depart="15.00" from="24652780#1" to="431737436"/>
    <trip id="16" depart="16.00" from="427692678#0" to="539419561#1"/>
    <trip id="17" depart="17.00" from="534433680" to="538952544"/>
    <trip id="18" depart="18.00" from="24650041#0" to="24611815#0"/>
    <trip id="19" depart="19.00" from="510873600" to="415999038#3"/>
    <trip id="20" depart="20.00" from="416013014#0" to="421491565#0"/>
    <trip id="21" depart="21.00" from="24360220#3" to="-427692678#0"/>
    <trip id="22" depart="22.00" from="24650040#0" to="219886402"/>
    <trip id="23" depart="23.00" from="24652759#4" to="363221375"/>
    <trip id="24" depart="24.00" from="534510817#1" to="24650041#6"/>
    <trip id="25" depart="25.00" from="421557988#0" to="420385363#0"/>
    <trip id="26" depart="26.00" from="-426166042" to="-24419164#0"/>
    <trip id="27" depart="27.00" from="431768088#0" to="770744578"/>
    <trip id="28" depart="28.00" from="24617779#1" to="-420385374#2"/>
    <trip id="29" depart="29.00" from="432822448" to="24360576"/>
    <trip id="30" depart="30.00" from="431775472" to="35972438#1"/>
    <trip id="31" depart="31.00" from="431996150#1" to="24652759#0"/>
    <trip id="32" depart="32.00" from="431768087#3" to="287938197"/>
    <trip id="33" depart="33.00" from="24666196#1" to="24672255#1"/>
    <trip id="34" depart="34.00" from="63521323#0" to="427691216#7"/>
    <trip id="35" depart="35.00" from="-31922086#1" to="-308669835#0"/>
    <trip id="36" depart="36.00" from="89383700#2" to="287938198"/>
    <trip id="37" depart="37.00" from="421616332#2" to="534544851#0"/>
    <trip id="38" depart="38.00" from="770744578" to="431981409"/>
    <trip id="39" depart="39.00" from="-31280190" to="302701816#3"/>
    <trip id="40" depart="40.00" from="24360577#0" to="-199287420#0"/>
    <trip id="41" depart="41.00" from="291083098#2" to="420861079"/>
    <trip id="42" depart="42.00" from="532184440" to="420397508"/>
    <trip id="43" depart="43.00" from="24650057#0" to="432805066"/>
    <trip id="44" depart="44.00" from="428274872#1" to="431949568"/>
    <trip id="45" depart="45.00" from="-561831375#1" to="150316498#0"/>
    <trip id="46" depart="46.00" from="421924785" to="532137771"/>
    <trip id="47" depart="47.00" from="24611998#2" to="428274872#0"/>
    <trip id="48" depart="48.00" from="-199287420#1" to="24360711"/>
    <trip id="49" depart="49.00" from="24617779#1" to="291083097#2"/>
    <trip id="50" depart="50.00" from="24611824#5" to="107938380#0"/>
    <trip id="51" depart="51.00" from="422264046#2" to="534510817#2"/>
    <trip id="52" depart="52.00" from="-24360389" to="128476620#1"/>
    <trip id="53" depart="53.00" from="420861081" to="427636275#1"/>
    <trip id="54" depart="54.00" from="31921276" to="538947358"/>
    <trip id="55" depart="55.00" from="538783728" to="-427692678#0"/>
    <trip id="56" depart="56.00" from="302701029#2" to="427636275#1"/>
    <trip id="57" depart="57.00" from="420397519#2" to="431768087#1"/>
    <trip id="58" depart="58.00" from="416005326" to="356064695#2"/>
    <trip id="59" depart="59.00" from="31245585#0" to="-24672270"/>
    <trip id="60" depart="60.00" from="-24211848#3" to="150316498#1"/>
    <trip id="61" depart="61.00" from="24360454#1" to="415999035#0"/>
    <trip id="62" depart="62.00" from="420397519#1" to="308669836"/>
    <trip id="63" depart="63.00" from="427692678#1" to="24211848#2"/>
    <trip id="64" depart="64.00" from="291083095#0" to="356064695#2"/>
    <trip id="65" depart="65.00" from="36921441#4" to="540363260#1"/>
    <trip id="66" depart="66.00" from="424184690#2" to="667195599#4"/>
    <trip id="67" depart="67.00" from="291083104#0" to="24650024"/>
    <trip id="68" depart="68.00" from="534527526#1" to="421924777#2"/>
    <trip id="69" depart="69.00" from="409673591#1" to="370241718#3"/>
    <trip id="70" depart="70.00" from="24212327" to="538952543#0"/>
    <trip id="71" depart="71.00" from="540363260#0" to="150166749#0"/>
    <trip id="72" depart="72.00" from="425426453#2" to="291263660#0"/>
    <trip id="73" depart="73.00" from="424804974#4" to="290167854"/>
    <trip id="74" depart="74.00" from="531937186#1" to="425195361"/>
    <trip id="75" depart="75.00" from="24650040#4" to="24360723#1"/>
    <trip id="76" depart="76.00" from="31922086#1" to="24666196#2"/>
    <trip id="77" depart="77.00" from="308669837#2" to="-420385374#2"/>
    <trip id="78" depart="78.00" from="291263660#1" to="431769275"/>
    <trip id="79" depart="79.00" from="31246306#0" to="24360702#2"/>
    <trip id="80" depart="80.00" from="24672252" to="291081716#0"/>
    <trip id="81" depart="81.00" from="415950908#1" to="420385374#2"/>
    <trip id="82" depart="82.00" from="431768088#5" to="431773479#0"/>
    <trip id="83" depart="83.00" from="24211848#3" to="531937188"/>
    <trip id="84" depart="84.00" from="268437065" to="308669836"/>
    <trip id="85" depart="85.00" from="308669837#2" to="291083098#2"/>
    <trip id="86" depart="86.00" from="431768088#6" to="37017374#1"/>
    <trip id="87" depart="87.00" from="63521323#0" to="24611815#2"/>
    <trip id="88" depart="88.00" from="24360702#5" to="31246306#0"/>
    <trip id="89" depart="89.00" from="420861076" to="431737440"/>
    <trip id="90" depart="90.00" from="421616332#2" to="363246361"/>
    <trip id="91" depart="91.00" from="425391226#0" to="24611815#1"/>
    <trip id="92" depart="92.00" from="427125129" to="24650040#2"/>
    <trip id="93" depart="93.00" from="540363260#0" to="24360577#0"/>
    <trip id="94" depart="94.00" from="534516112" to="531955431"/>
    <trip id="95" depart="95.00" from="424798280#0" to="128476620#1"/>
    <trip id="96" depart="96.00" from="24672301" to="-35972438#2"/>
    <trip id="97" depart="97.00" from="-427692678#1" to="24406756#0"/>
    <trip id="98" depart="98.00" from="35972437#0" to="531908092#0"/>
    <trip id="99" depart="99.00" from="247705007" to="24672316#3"/>
    <trip id="100" depart="100.00" from="420385362#0" to="-531959844"/>
    <trip id="101" depart="101.00" from="427691216#2" to="540428269"/>
    <trip id="102" depart="102.00" from="415999038#1" to="24611815#0"/>
    <trip id="103" depart="103.00" from="428274872#0" to="428066863#2"/>
    <trip id="104" depart="104.00" from="432198819" to="426166044"/>
    <trip id="105" depart="105.00" from="531908097" to="425391227"/>
    <trip id="106" depart="106.00" from="24672281" to="424804974#2"/>
    <trip id="107" depart="107.00" from="425426453#0" to="420397506#3"/>
    <trip id="108" depart="108.00" from="531908097" to="370241718#9"/>
    <trip id="109" depart="109.00" from="-128476620#1" to="24611999#2"/>
    <trip id="110" depart="110.00" from="24559802#0" to="532188875"/>
    <trip id="111" depart="111.00" from="24650211" to="420853981"/>
    <trip id="112" depart="112.00" from="531955423" to="-531938898"/>
    <trip id="113" depart="113.00" from="531935302" to="427635472#3"/>
    <trip id="114" depart="114.00" from="532184761" to="431773479#1"/>
    <trip id="115" depart="115.00" from="531908091" to="35972438#4"/>
    <trip id="116" depart="116.00" from="24212326#0" to="24650041#1"/>
    <trip id="117" depart="117.00" from="428048489#1" to="24652764#3"/>
    <trip id="118" depart="118.00" from="160695432#0" to="24212577#0"/>
    <trip id="119" depart="119.00" from="427643915" to="121072321#1"/>
    <trip id="120" depart="120.00" from="24611999#0" to="425205867#1"/>
    <trip id="121" depart="121.00" from="24211848#3" to="431996150#1"/>
    <trip id="122" depart="122.00" from="308669835#0" to="24360702#2"/>
    <trip id="123" depart="123.00" from="427635472#1" to="36921441#8"/>
    <trip id="124" depart="124.00" from="427691216#5" to="420385367#1"/>
    <trip id="125" depart="125.00" from="432198819" to="24650209"/>
    <trip id="126" depart="126.00" from="421616332#0" to="409673591#2"/>
    <trip id="127" depart="127.00" from="30480344#2" to="420385367#0"/>
    <trip id="128" depart="128.00" from="420397519#0" to="24212328"/>
    <trip id="129" depart="129.00" from="431768088#3" to="559865548#0"/>
    <trip id="130" depart="130.00" from="291083098#2" to="24672282"/>
    <trip id="131" depart="131.00" from="534548502" to="420385367#1"/>
    <trip id="132" depart="132.00" from="24360386#3" to="427692678#1"/>
    <trip id="133" depart="133.00" from="431768087#4" to="24361373#1"/>
    <trip id="134" depart="134.00" from="431773478" to="291083102#2"/>
    <trip id="135" depart="135.00" from="538783728" to="-540428269"/>
    <trip id="136" depart="136.00" from="24652765#0" to="426245385#0"/>
    <trip id="137" depart="137.00" from="302701819" to="-31280190"/>
    <trip id="138" depart="138.00" from="421565755" to="291083098#0"/>
    <trip id="139" depart="139.00" from="534516116#0" to="24650041#9"/>
</routes>
