<?xml version="1.0" encoding="UTF-8"?>

<!-- generated on Fri May 22 03:18:25 2020 by Eclipse SUMO duarouter Version 1.6.0
<configuration xmlns:xsi="http://www.w3.org/2001/XMLSchema-instance" xsi:noNamespaceSchemaLocation="http://sumo.dlr.de/xsd/duarouterConfiguration.xsd">

    <input>
        <net-file value="erlangen.net.xml"/>
        <route-files value="trips.trips.xml"/>
    </input>

    <output>
        <output-file value="erlangen.rou.xml"/>
        <alternatives-output value="erlangen.rou.alt.xml"/>
    </output>

    <time>
        <begin value="0"/>
        <end value="420.0"/>
    </time>

    <report>
        <no-warnings value="true"/>
        <ignore-errors value="true"/>
        <no-step-log value="true"/>
    </report>

</configuration>
-->

<routes xmlns:xsi="http://www.w3.org/2001/XMLSchema-instance" xsi:noNamespaceSchemaLocation="http://sumo.dlr.de/xsd/routes_file.xsd">
    <vType id="emergency" sigma="0.5" length="5" maxSpeed="50"/>

    <vehicle id="0" type="emergency" depart="0.00" color="1,0,0">
        <route edges="389775709 291083097#3 291083097#4 291083097#5 431996150#1 538959951 150316488 150316490#0 150316490#1 531908091 531908090 531908092#0 531908092#1 95606290#0 24650052#0 24650052#1 24650052#2 291083105 531952886"/>
    </vehicle>
    <vehicle id="1" type="emergency" depart="0.00" color="1,0,0">
        <route edges="24360386#2 24360386#3 291083094#2 531955429 531955428 531955427 247705006 531955426 531955425 247705007 531955424 291083099 531955423 531955422 531955421 531955420 531955419 531955418 531955417 531955805 291083103#0 264448745 107938320#2 534548505 534548504 534548502 431771841#0 160695148 427643916#0"/>
    </vehicle>
    <vehicle id="2" type="emergency" depart="0.00" color="1,0,0">
        <route edges="-24360705 291081716#1 24406756#0 24406756#1 532137775#0 532137775#1 426245385#0 -24360708 424798280#2 420385368#0 420385368#1 532138882 532138881#0 532138881#1 532138880#0 532138880#1 385513379 532139226 385513380 428274872#0"/>
    </vehicle>
    <vehicle id="3" type="emergency" depart="0.00" color="1,0,0">
        <route edges="24611815#2 291083101 531952883 531952882 531952881 425391225 531952880 531952879 531952878 531952877 30480344#2 30480344#3 30480344#4 24650041#9 415999044"/>
    </vehicle>
    <vehicle id="4" type="emergency" depart="0.00" color="1,0,0">
        <route edges="24650052#2 291083105 531952886 531952885 531952884 291083101 531952883 531952882 531952881 420857020#0 420857020#1 247705007 531955424 291083099 531955423 291083102#2 291083102#3 291083102#4 428066863#1 428066863#2"/>
    </vehicle>
    <vehicle id="5" type="emergency" depart="0.00" color="1,0,0">
        <route edges="531908092#0 531908092#1 95606290#0 24650052#0 24650052#1 24650052#2 291083105 531952886 531952885 531952884 291083101 531952883 531952882 531952881 425391225 531952880 531952879 531952878 531952877 30480344#2 30480344#3 30480344#4 30480344#5"/>
    </vehicle>
    <vehicle id="6" depart="0.00">
        <route edges="302701817#4 302701817#5 302701817#6 302701817#7 220063159 431768085 431768089#0 431768089#1 431718580#0 431718580#1 24650211 420853985 50502913#0 50502913#1 290167854 290167856 150166750 432805066 427129776 427125129 428066862#0 428066862#1 538784511#0 538784511#1 531952885 531952884 291083101 531952883 531952882 531952881 425391225 531952880 531952879 531952878 531952877 291083095#0 291083095#1 531952876 291083090 531953023 385513374 291081716#0 291081716#1 24406756#0 24406756#1 532137775#0 532137775#1 426245385#0 426245385#1 426245385#2 424798278 -24419185 -531939267 531939267 24419185 424183875#0 -24419164#1 -24419164#0"/>
    </vehicle>
    <vehicle id="8" depart="0.00">
        <route edges="31268289 420397508 370241718#0 370241718#1 370241718#2 370241718#3 370241718#4 421557988#1 415999041#3 415999041#4 -31268070"/>
    </vehicle>
    <vehicle id="9" depart="0.00">
        <route edges="538952542 531908095 160695432#0 160695432#1 531908094 531908093 431996150#0 431996150#1 538959951 150316488 150316490#0 150316490#1 531908091 531908090 531908092#0 531908092#1 95606290#0 95606290#1 356481622 24650047#1 538783729 534548508 425389841#0 425389841#1 534548506 107938335#0 107938335#1 107938320#0 107938320#1 107938320#2 534548505 534548504 534548502 431771841#0 431771841#1 24650081#0 24650081#1 431722531#1 31016404 431722532#0 431722532#1 534433677 534433675 534433671 -71498398#1 -71498398#0 -356064688 -107938398 420854026 426468658"/>
    </vehicle>
    <vehicle id="10" depart="0.00">
        <route edges="24611824#2 35972438#3 35972438#4 420397514 308669835#0 308669835#1 423002225 24611821#0 531904593 35972439#0 35972439#1 538952543#0 538952543#1"/>
    </vehicle>
    <vehicle id="11" depart="0.00">
        <route edges="37017374#1 308669835#1 423002225 24611821#0 24611821#1 531908093 431996150#0 431996150#1 538959951 150316488 150316490#0 150316490#1 531908091 531908090 24611815#0 24611815#1 24611815#2 291083102#0 291083102#1 291083102#2 291083102#3 291083102#4 291083102#5 291083102#6 291083102#7 291083102#8 291083102#9 534436815#2 160695140#0 160695140#1"/>
    </vehicle>
    <vehicle id="13" depart="0.00">
        <route edges="36921441#0 36921441#1 36921441#2 36921441#3 36921441#4 36921441#5 36921441#6 36921441#7 24650050#2 24650050#3 534433675 534433671 -71498398#1 -71498398#0 -356064688 -107938398 420854026 302701031 426488275 432420737 31290001 431737436 431768087#0 431768087#1 431768087#2 24650057#1"/>
    </vehicle>
    <vehicle id="14" depart="0.00">
        <route edges="531908097 531908096 538952544 415999043#0 415999043#1 291083091#0 291083091#1 539191494 421517001 532184440 532184439 532184438 532184442 432198819 538947358 291263660#0"/>
    </vehicle>
    <vehicle id="15" depart="0.00">
        <route edges="425391226#0 425391226#1 160695140#4 409673591#0 428066863#2 427692679#0 427692679#1 427888490 24611811#0 24360702#0 24360702#1 24360702#2 24360702#3 24611808#2 30480344#0"/>
    </vehicle>
    <vehicle id="16" depart="0.00">
        <route edges="420397517#1 427909516#0 427909516#1 370241718#0 370241718#1 531937183#2 531937183#3 431723954#3 431723954#4 431723954#5 431723954#6 431723954#7 431723954#8 770749817 531908097 420385363#2 538952543#1"/>
    </vehicle>
    <vehicle id="17" depart="0.00">
        <route edges="24612006 531937186#1 420397513#0 420397513#1 425426453#0 425426453#1 35972438#2 35972438#3 35972438#4 420397514 308669835#0 308669835#1 308669836"/>
    </vehicle>
    <vehicle id="18" depart="0.00">
        <route edges="415999043#1 291083091#0 291083091#1 539191494 421517001 532184440 532184439 532184438 532184442 432198819 421616332#0 421616332#1 421616332#2"/>
    </vehicle>
    <vehicle id="19" depart="0.00">
        <route edges="268437065 531939267 24419185 424183874 424798280#0 424798280#1 424798280#2 420385368#0 420385368#1 532138882 532138881#0 532138881#1 532138880#0 532138880#1 385513379 532139226 385513377 291081710#0 291081710#1 531955432 422271119 531955431 291083092#0 138055545#0 24360702#5 421565755"/>
    </vehicle>
    <vehicle id="21" depart="0.00">
        <route edges="432145967#1 432145967#2 432145967#3 150316498#0 150316498#1 150316498#2 150316498#3 150316498#4 310525151 427692678#0 427692678#1 -420857020#1 -420857020#0 291083098#0 291083098#1 291083098#2 416005331#0 416005331#1 416005329#0 416005329#1 416005329#2 416005329#3 37017374#0 37017374#1 -308669835#0 -420397514 427635472#0 -24611997#2 24361011#2"/>
    </vehicle>
    <vehicle id="22" depart="0.00">
        <route edges="532138449#0 532138449#1 532138883 532138882 532138881#0 532138881#1 532138880#0 532138880#1 24360571#0 428274872#1 420385367#1 291083107#0 291083107#1 426245385#0 426245385#1 426245385#2 424798277#0 424798277#1 431723954#7 431723954#8 770749817 531908097 531908096 538952544 415999043#0"/>
    </vehicle>
    <vehicle id="23" depart="0.00">
        <route edges="291083102#5 291083102#6 425161101 425161060#0 425161060#1 425161053#0 425161053#1 107938353 290167854 432805065 262429743 431766086#0 431766086#1"/>
    </vehicle>
    <vehicle id="24" depart="0.00">
        <route edges="428066862#1 538784511#0 538784511#1 531952885 531952884 291083101 531952883 531952882 531952881 425391225 531952880 531952879 291083096#0 291083096#1 24360380#0 24360380#1 424184691#0 424184691#1 424184691#2 424184691#3 424184690#0 427888491#2 427888491#3 427692680 422268369 532182102 538947358"/>
    </vehicle>
    <vehicle id="25" depart="0.00">
        <route edges="540428269 24611995#2 24611995#3 24611995#4 24611995#5 531935302 531935301 531935300 531935299 531935297 531935296 531935295 531935294 531935293 420397506#0 531937190 531937189 531937188"/>
    </vehicle>
    <vehicle id="26" depart="0.00">
        <route edges="409673591#2 291083099 531955423 291083102#2 291083102#3 291083102#4 428066863#1 428066863#2 427692679#0 427692679#1 427888491#0 427888491#1 427888491#2 427888491#3 427692680 422268369 532184445 24360454#0 24360454#1 24360454#2 24360454#3"/>
    </vehicle>
    <vehicle id="27" depart="0.00">
        <route edges="36921441#6 287902869#1 425391227 425391228 427087977 428066862#0 428066862#1 538784511#0 538784511#1 531952885 531952884 291083101 531952883 531952882 531952881 291083098#0 291083098#1 291083098#2 416005331#0 416005331#1 416005329#0 416005329#1 416005329#2 416005329#3 37017374#0 37017374#1 -308669835#0 -420397514 -35972438#4 -35972438#3 -35972438#2 -35972438#1 360617341#1 360617341#2"/>
    </vehicle>
 
    <vehicle id="29" depart="0.00">
        <route edges="24611822#1 24611822#2 415999040#0 415999040#1 538952545 538952542 531908095 160695432#0 160695432#1 531908094 531908093 431996150#0 431996150#1 538959951 150316488 150316490#0 150316490#1 531908091 531908090 531908092#0 531908092#1 95606290#0 95606290#1 356481622 24650047#1 538783729 534548508 425389841#0 425389841#1 534548506 107938335#0 107938335#1 107938320#0 107938320#1 107938320#2 534548505 534548504 534548502 431771841#0 431771841#1 431771841#2 24672301 24672302 24672303 24672316#0 24672316#1 24672316#2 24672316#3 24672316#4 534516110 534516109 534516107"/>
    </vehicle>
    <vehicle id="30" depart="0.00">
        <route edges="89383700#2 425205866#1 427843246 85865018#0 85865018#1 85865018#2 85865018#3 85865018#4 85865018#5 85865018#6 85865018#7 532182104 532184445 532184444 532184441 532188875 532182103#0 532182103#1 532184761 385513375#0 385513375#1 385513374 291081716#0 291081716#1 24406756#0 24406756#1 532137775#0 532137775#1 426245385#0 426245385#1 426245385#2 424798278 -24419185 -531939267 -531939266 24419172"/>
    </vehicle>
    <vehicle id="31" depart="0.00">
        <route edges="-128476620#1 -128476620#0 24652770 302701817#6 302701817#7 220063159 431768085 431768089#0 431768089#1 431718580#0 431718580#1 24650211 420853985 50502913#0 50502913#1 290167854 290167856 150166750 432805066 427129776 427125129 428066862#0 428066862#1 538784511#0 538784511#1 531952885 531952884 291083101 531952883 531952882 531952881 425391225 531952880 531952879 531952878 531952877 291083095#0 291083095#1 531952876 291083090 531953023 385513374 291081716#0 291081716#1 24406756#0 24406756#1 532137775#0 532137775#1 426245385#0 426245385#1 426245385#2 424798278 -24419185 -531939267 -268437065"/>
    </vehicle>
    <vehicle id="32" depart="0.00">
        <route edges="370241718#11 423002225 24611821#0 24611821#1 531908093 30480341#1 24650041#8 30480344#5 160695432#1 531908094"/>
    </vehicle>
    <vehicle id="33" depart="0.00">
        <route edges="531952876 291083090 531953023 385513374 291081716#0 291081716#1 24406756#0 24406756#1 532137775#0 532137775#1 426245385#0 426245385#1 426245385#2 424798278 -24419185 -531939267 -531939266 -420385374#2"/>
    </vehicle>
    <vehicle id="34" depart="0.00">
        <route edges="531900686 416005328 538952547#0 538952547#1 421491565#0 24650041#6 24650041#7 24650041#8 24650041#9 415999044 415999042#0 415999042#1 385513376#1 385513376#2 385513376#3 431946930"/>
    </vehicle>
    <vehicle id="35" depart="0.00">
        <route edges="24652781#1 24559802#4 24559802#5 24652778#1 667195599#0 667195599#1 425647416#0 425647416#1 425647416#2 534433692#0 534433692#1 534433690 534433687 534433680 534433684#0 534516113 534516112 50502913#1 290167854 290167856 150166750 432805066 427129776 427125129 428066862#0 428066862#1 538784511#0 538784511#1 531952885 531952884 291083101 531952883 531952882 531952881 425391225 531952880 531952879 531952878 531952877 291083095#0"/>
    </vehicle>
    <vehicle id="36" depart="0.00">
        <route edges="24652764#2 24666196#1 667191401#2 432793073#0 432793073#1 302701819 302701816#0 302701816#1 302701816#2 302701816#3 302701816#4 534516108 534433698 534433692#0 534433692#1 534433690 534433687 534433680 534433684#0 534433684#1 431722531#0 431722531#1 31016404 431722532#0 431722532#1 534433677 534433675 534433671 534436815#0 534436815#1 534436815#2 160695140#0 160695140#1 160695140#2 160695140#3"/>
    </vehicle>
    <vehicle id="37" depart="0.00">
        <route edges="36921439 160695140#2 36921441#5 36921441#6 36921441#7 24650050#2 24650050#3 534433675 534433671 -71498398#1 -71498398#0 -356064688 -107938398 -420854021#1 -420854021#0 368784885 24360219 31529455#0"/>
    </vehicle>
    <vehicle id="38" depart="0.00">
        <route edges="415999041#0 24361001#2 24361011#0 24611822#2 415999040#0 415999040#1 538952545 538952542 531908095 160695432#0 160695432#1 531908094 531908093 431996150#0 431996150#1 538959951 150316488 150316490#0 150316490#1 531908091 531908090 531908092#0 531908092#1 95606290#0 95606290#1 356481622 24650047#1 538783729 534548508 425389841#0 425389841#1 534548506 107938335#0 107938335#1 107938320#0 107938320#1 107938320#2 534548505 534548504 534548502 431771841#0 431771841#1 24650081#0 24650081#1 431722531#1 31016404 431722532#0 431722532#1 534433677 534433675 534433671 -71498398#1 -71498398#0 238009794#0 238009794#1 238009794#2"/>
    </vehicle>
    <vehicle id="39" depart="0.00">
        <route edges="24212327 409675303#0 409675303#1 160695140#0 160695140#1 160695140#2 160695140#3 160695140#4 409673591#0 428066863#2 427692679#0 427692679#1 427888490 24611811#0 24611811#1 291083097#0 291083097#1 531952880 531952879 531952878 531952877 291083095#0 36826295#0 36826295#1 415999044 415999042#0 415999042#1"/>
    </vehicle>
    <vehicle id="40" depart="0.00">
        <route edges="431737436 431768085 431768089#0 431768089#1 431718580#0 431718580#1 24650211 420853985 50502913#0 50502913#1 290167854 290167856 150166750 432805066 427129776 427125129 428066862#0 428066862#1 538784511#0 538784511#1 531952885 531952884 291083101 531952883 531952882 531952881 425391225 531952880 531952879 531952878 531952877 291083095#0 291083095#1 531952876 291083090 531953023 385513374 291081716#0 291081716#1 24406756#0 24406756#1 532137775#0 532137775#1 426245385#0 426245385#1 61129785 424798280#1"/>
    </vehicle>
    <vehicle id="42" depart="0.00">
        <route edges="199287418#0 199287418#1 41374099#1 540428272 531937184 531937183#0 531937183#1 531937183#2 531937183#3 431723954#3 431723954#4 431723954#5 24360723#0 24360723#1 424183874 424798280#0 424798280#1 424798280#2 420385368#0 420385368#1 532138882 532138881#0 532138881#1 532138880#0 532138880#1 385513379"/>
    </vehicle>
    <vehicle id="43" depart="0.00">
        <route edges="531955427 247705006 531955426 531955425 247705007 531955424 291083099 531955423 531955422 531955421 531955420 531955419 531955418 531955417 531955805 291083103#0 291083103#1 107938320#0 107938320#1 107938320#2 534548505 534548504 534548502 431771841#0 431771841#1 431771841#2 424792137 24650209 534542787 24650210 24650059#2 24650059#3 50502934 431737440 24663657#0 24663657#1 431751174#0 431751174#1 420854035 534527526#1"/>
    </vehicle>
    <vehicle id="45" depart="0.00">
        <route edges="24672316#2 24672316#3 24672316#4 425647416#2 534433692#0 534433692#1 534433690 534433687 534433680 534433684#0 534516113 534516112 50502913#1 290167854 290167856 150166750 432805066 427129776 427125129 428066862#0 428066862#1 538784511#0 538784511#1 531952885 531952884 291083101 531952883 531952882 531952881 291083098#0 291083098#1 291083098#2 416005331#0 416005331#1 416005329#0 416005329#1 416005329#2 416005329#3 37017374#0 37017374#1"/>
    </vehicle>
    <vehicle id="46" depart="0.00">
        <route edges="431771498#1 770744578 24652222 24650045#0 24650045#1 426488282 432420737 31290001 431737436 431768087#0 431768087#1 431768087#2 431768087#3 24652759#3 24652759#4 667191401#0 667191401#1 667191401#2 432793073#0 432793073#1"/>
    </vehicle>
    <vehicle id="47" depart="0.00">
        <route edges="-510873600 510873600 510873599 534516114#0 534516114#1 534516114#2 24672316#0 -534433696 534433687 534433680 534433684#0 534516113 534516112 50502913#1 290167854 432805065 431766078#0 431766078#1 107938396#0 107938396#1 534544851#0 534544851#1"/>
    </vehicle>
    <vehicle id="48" depart="0.00">
        <route edges="24360226 36921441#4 36921441#5 36921441#6 36921441#7 24650050#2 24650050#3 534433675 534433671 -71498398#1 -71498398#0 -356064688 -107938398 420854026 302701031 426488275 432420736#0 432420736#1 409607686 420853979"/>
    </vehicle>
    <vehicle id="49" depart="0.00">
        <route edges="24612006 531937186#1 531937185 41374099#0 41374099#1 540428272 531937184 531937183#0 531937183#1 531937183#2 531937183#3 431723954#3 431723954#4 431723954#5 431723954#6 431723954#7 431723954#8 770749817 531908097 531908096 538952542 531908095 160695432#0 160695432#1 531908094 531908093 431996150#0 431996150#1 538959951 150316488 150316490#0 150316490#1 531908091 531908090 531908092#0 531908092#1 95606290#0 95606290#1 356481622 24650047#1 538783729 534548508 425389841#0 425389841#1 534548506 107938335#0 107938335#1 107938320#0 107938320#1 107938320#2 534548505 150166750 432805066 427129776 427125130 24650050#0 24650050#1 24650050#2 24650049 287902869#0"/>
    </vehicle>
    <vehicle id="50" depart="0.00">
        <route edges="24652759#4 667191401#0 667191401#1 667191401#2 432793073#0 432793073#1 302701819 302701816#0 302701816#1 302701816#2 302701816#3 302701816#4 534516108 534433698 534433692#0 534433692#1 534433690 534433687 534433680 534433684#0 534516113 534516112 50502913#1 290167854 290167856 150166750 432805066 427129776 427125129 428066862#0 428066862#1 538784511#0 538784511#1 531952885 531952884 291083101 531952883 531952882 531952881 425391225 531952880 531952879 531952878 531952877 291083095#0 291083095#1 531952876 291083090 531953023 385513374 291081716#0 291081716#1 24406756#0 24406756#1 532137775#0 532137775#1 426245385#0 426245385#1 426245385#2 424798278 424183874 424798280#0"/>
    </vehicle>
    <vehicle id="51" depart="0.00">
        <route edges="24650079 24650081#1 431722531#1 31016404 24650053 427643915 427643918#0 425161053#0 425161053#1 107938353 290167854 432805065 262429743 431766086#0 431766086#1 420861084#0 420861084#1 431766093 532133791 431762830"/>
    </vehicle>
    <vehicle id="52" depart="0.00">
        <route edges="31018706 534433702 534433698 534433692#0 534433692#1 534433690 534433687 534433680 534433684#0 534433684#1 431722531#0 431722531#1 31016404 431722532#0 431722532#1 534433677 534433675 534433671 -71498398#1 -71498398#0 -356064688 -107938398 -420854021#1 -420854021#0 368784885 24360219 31529455#0 31529455#1 431914698 431949568 415950908#0 415950908#1 427636275#0 427636275#1"/>
    </vehicle>
    <vehicle id="53" depart="0.00">
        <route edges="150166771#1 24560064#0 24560064#1 420861076 150166755 420861082#0 420861082#1 150166760 150166749#0 150166749#1 150166749#2 150166749#3 264448746 534544851#1 -425202121 534548508 425389841#0 425389841#1 534548506 107938335#0 107938335#1 107938320#0 107938320#1 107938320#2 534548505 150166750 432805066 427129776 427125129 428066862#0 427691216#5 427691216#6"/>
    </vehicle>
    <vehicle id="54" depart="0.00">
        <route edges="424184689#0 424184689#1 427691216#0 427691216#1 427691216#2 427691216#3 291083102#3 291083102#4 291083102#5 291083102#6 425161101 425161060#0 24650050#0 24650050#1 24650050#2 24650050#3 534433675 534433671 -71498398#1 -71498398#0 -356064688 -409675309"/>
    </vehicle>
    <vehicle id="55" depart="0.00">
        <route edges="559865548#0 559865548#1 420397517#1 427909516#0 427909516#1 370241718#0 370241718#1 531937183#2 531937183#3 431723954#3 431723954#4 431723954#5 431723954#6 431723954#7 431723954#8 770749817 531908097 531908096 538952542 531908095 160695432#0 160695432#1 531908094 531908093 30480341#1 30480341#2 30480341#3 30480341#4 291083096#0 291083096#1 24360380#0 24360702#2 24360702#3 24611808#2"/>
    </vehicle>
    <vehicle id="56" depart="0.00">
        <route edges="415999034 415999039 422268369 532184445 532184444 532184441 532188875 532182103#0 532182103#1 532184761 385513375#0 385513375#1 385513374 291081716#0 291081716#1 24406756#0 24406756#1 532137775#0 532137775#1 426245385#0 426245385#1 426245385#2 424798277#0 24360707#0 24360707#1 24360707#2"/>
    </vehicle>
    <vehicle id="57" depart="0.00">
        <route edges="422264046#6 422264046#7 409673591#0 428066863#2 427692678#0 427692678#1 -420857020#1 -420857020#0 291083098#0 291083098#1 291083098#2 416005331#0 416005331#1 416005328 538952547#0 538952547#1 421491565#0"/>
    </vehicle>
    <vehicle id="58" depart="0.00">
        <route edges="431773478 431773479#0 431773479#1 24650057#0 24650057#1 510873600 510873599 534516114#0 534516114#1 534516114#2 24672316#0 24672316#1 24672316#2"/>
    </vehicle>
    <vehicle id="59" depart="0.00">
        <route edges="24617779#1 561831375#0 561831375#1 35972437#1 35972437#2 420397515 420397514 308669835#0 308669835#1 423002225 24611821#0 24611821#1 531908093 30480341#1 30480341#2 30480341#3 30480341#4 291083096#0 291083096#1 24360380#0 24360380#1 424184691#0 424184691#1 424184691#2 424184691#3 424184690#0 427888491#2 24360386#1"/>
    </vehicle>
    <vehicle id="60" depart="0.00">
        <route edges="35972439#1 538952543#0 538952543#1 431723954#1 431723954#2 431723954#3 431723954#4 431723954#5 24360723#0 24360723#1 424183874 424798280#0 424798280#1 424798280#2 420385368#0 420385368#1 532138882 532138881#0 532138881#1 532138880#0 532138880#1 385513379"/>
    </vehicle>
    <vehicle id="61" depart="0.00">
        <route edges="31921276 531898573 531900686 416005328 538952547#0 538952547#1 538959951 150316488 150316490#0 150316490#1 531908091 531908090 531908092#0 531908092#1 95606290#0 24650052#0 24650041#1"/>
    </vehicle>
    <vehicle id="62" depart="0.00">
        <route edges="534542786 534542784 426488277#0 426488277#1 431975590 24652215#0 24652215#1 420854023 420854021#0 420854021#1 107938398 356064695#0"/>
    </vehicle>
 
    <vehicle id="64" depart="0.00">
        <route edges="24652765#0 302701817#2 302701817#3 302701817#4 302701817#5 302701817#6 302701817#7 220063159 431768085 431768089#0 431768089#1 431718580#0 431718580#1 24650211 420853985 50502913#0 50502913#1 290167854 290167856 534548504 534548502 431771841#0 431771841#1 431771841#2 424792137"/>
    </vehicle>
    <vehicle id="65" depart="0.00">
        <route edges="534510784 71498398#0 71498398#1 534436815#0 534436815#1 534436815#2 160695140#0 160695140#1 160695140#2 160695140#3 160695140#4 409673592 425161101 425391228 427087977 428066862#0 428066862#1 538784511#0 538784511#1 291083104#0 24650040#5"/>
    </vehicle>
    <vehicle id="66" depart="0.00">
        <route edges="291083095#1 531952876 291083090 531953023 385513374 291081716#0 291081716#1 24406756#0 24406756#1 532137775#0 532137775#1 426245385#0 426245385#1 426245385#2 424798277#0 424798277#1 431723954#7 431723954#8 770749817 531908097 531908096 538952542 531908095 160695432#0 160695432#1 531908094 531908093 431996150#0 431996150#1 538959951 150316488 150316490#0 150316490#1 531908091 531908090 531908092#0 531908092#1 95606290#0 95606290#1 356481622 24650047#1 538783729 534548508 425389841#0 425389841#1 534548506 107938335#0 107938335#1 107938320#0 107938320#1 107938320#2 534548505 534548504 534548502 431771841#0 431771841#1 431771841#2 24672301 24672302 24672303 24672316#0 24672316#1 24652759#0"/>
    </vehicle>
    <vehicle id="67" depart="0.00">
        <route edges="24650040#3 24611815#2 291083102#0 291083102#1 531955422 531955421 531955420 531955419 425382683#0 425382683#1 427125130 24650050#0 24650050#1 24650050#2 24650050#3 534433675 534433671 -71498398#1 -71498398#0 -356064688 -107938398 -420854021#1 -420854021#0 368784885 24360219 31529455#0 31529455#1 431914698 431949567 -431914696 -420841674 431771498#1"/>
    </vehicle>
    <vehicle id="69" depart="0.00">
        <route edges="360617341#2 531935294 531935293 531935292 426166044 432035070 35972438#0 35972438#1 35972438#2 35972438#3 35972438#4 420397514 308669835#0 308669835#1 423002225 24611821#0 24611821#1 531908093 431996150#0 431996150#1 538959951 150316488 150316490#0 150316490#1 531908091 531908090 531908092#0 531908092#1 95606290#0 95606290#1 356481622 24650047#1 538783729 534548508 425389841#0 425389841#1 534548506 107938335#0 107938335#1 107938320#0 107938320#1 107938320#2 534548505 534548504 534548502 431771841#0 431771841#1 431771841#2 424792137 24650209 534542787 24650210 24650059#2 24650059#3 50502934 431737436 431768087#0 431768087#1 431768087#2 431768087#3"/>
    </vehicle>
    <vehicle id="70" depart="0.00">
        <route edges="-24611997#2 -24611997#1 308669837#2 415999041#0 24361001#2 24361001#3 427635471#0 427635471#1 427635471#2 531935300 531935299 531935297 531935296 531935295 531935294"/>
    </vehicle>
    <vehicle id="71" depart="0.00">
        <route edges="416005326 310525155 558053802 423032020#0 423032020#1 538952547#0 538952547#1 421491565#0 421491565#1 421491565#2 420857020#0 420857020#1 247705007 531955424 291083099 531955423 291083102#2 291083102#3 291083102#4 291083102#5 291083102#6 291083102#7 425391226#1 160695140#4"/>
    </vehicle>
    <vehicle id="73" depart="0.00">
        <route edges="24360384 427888490 427691216#0 427691216#1 427692678#1 -420857020#1 -420857020#0 291083098#0 291083098#1 291083098#2 416005331#0 416005331#1 416005329#0 416005329#1 416005329#2 416005329#3 558053804 416005326 24650942#0 24650942#1"/>
    </vehicle>
    <vehicle id="74" depart="0.00">
        <route edges="-24611995#2 -540428269 531937184 531937183#0 531937183#1 531937183#2 420385362#2 426166046 421557988#0"/>
    </vehicle>
    <vehicle id="75" depart="0.00">
        <route edges="24212324"/>
    </vehicle>
    <vehicle id="76" depart="0.00">
        <route edges="31268070 415999041#5 415999041#6 531937183#1 531937183#2 531937183#3 431723954#3 431723954#4 431723954#5 431723954#6 431723954#7 431723954#8 770749817 531908097 531908096 538952544 415999043#0 415999043#1 291083091#0 291083091#1 422271119"/>
    </vehicle>
    <vehicle id="77" depart="0.00">
        <route edges="531908093 431996150#0 291083097#6 531902814 531904596 308669838 -423002225 -308669835#1 308669837#0 308669837#1 308669837#2 415999041#0 415999041#1 415999041#2 415999041#3 415999041#4 415999041#5 415999041#6 415999041#7 -427909516#0 427906278#0 427906278#1 370242036"/>
    </vehicle>
    <vehicle id="78" depart="0.00">
        <route edges="24360454#2 426225162#2 426225162#3 63521323#1 24650034 531959844 531959841 420401914 85865018#6 85865018#7 532182104 532184445 532184444 432198818 415999038#0 415999038#1 24611808#1"/>
    </vehicle>
    <vehicle id="79" depart="0.00">
        <route edges="-24652227 420841674 431914696 363246361 431914699 302701026#0 302701026#1 302701026#2 -409675305 -420854013 24212327 409675303#0 409675303#1 160695140#0 160695140#1 160695140#2 160695140#3 160695140#4 409673591#0 428066863#2 427692679#0 427692679#1 427888490 24611811#0 24611811#1 291083097#0 291083097#1 531952880 531952879 531952878 531952877 291083095#0 36826295#0 36826295#1 415999045 160695432#0"/>
    </vehicle>
    <vehicle id="80" depart="0.00">
        <route edges="31245582 420385363#1 420385363#2 24361001#0 24361001#1 415999041#1 415999041#2 415999041#3 415999041#4 415999041#5 415999041#6 415999041#7"/>
    </vehicle>
    <vehicle id="81" depart="0.00">
        <route edges="534527524 121072321#0 362955519#0 362955519#1 547641091 431740482 24652767 431751173 24650943#2 24650943#3 220063159 431768085 431768089#0 431768089#1 431718580#0 431718580#1 24650211 420853985 50502913#0 50502913#1 290167854 290167856 150166750 432805066 427129776 427125129 428066862#0 428066862#1 538784511#0 538784511#1 531952885 531952884 291083101 531952883 531952882 531952881 291083098#0 291083098#1 291083098#2 416005331#0 416005331#1 416005329#0 416005329#1 416005329#2 416005329#3 37017374#0 37017374#1 308669837#0 308669837#1 308669837#2 415999041#0 24361001#2 24361001#3 427635471#0 427635471#1 427635471#2 427635471#3 652135081"/>
    </vehicle>
    <vehicle id="82" depart="0.00">
        <route edges="431770506 31960418#0 31960418#1 31960418#2 24650045#0 24650045#1 426488282 432420736#0 432420736#1 409607686 24650046 431718580#0 431718580#1 24650211 420853985 50502913#0 50502913#1 290167854 290167856 150166750 432805066 427129776 427125129 428066862#0 428066862#1 538784511#0 538784511#1 531952885 531952884 291083101 531952883 531952882 531952881 425391225 531952880 531952879 531952878 531952877 291083095#0 291083095#1 531952876 291083090 531953023 385513374 291081716#0 291081716#1 24406756#0 24406756#1 532137775#0 532137775#1 426245385#0 426245385#1 426245385#2 424798277#0 424798277#1 431723954#7 24212577#0"/>
    </vehicle>
    <vehicle id="83" depart="0.00">
        <route edges="291083101 531952883 531952882 531952881 291083098#0 291083098#1 291083098#2 416005331#0 416005331#1 416005329#0 416005329#1 416005329#2 416005329#3 558053804 416005326"/>
    </vehicle>
    <vehicle id="84" depart="0.00">