<?xml version="1.0" encoding="UTF-8"?>

<!-- generated on Fri May 22 02:21:39 2020 by Eclipse SUMO polyconvert Version 1.6.0
<configuration xmlns:xsi="http://www.w3.org/2001/XMLSchema-instance" xsi:noNamespaceSchemaLocation="http://sumo.dlr.de/xsd/polyconvertConfiguration.xsd">

    <input>
        <net-file value="erlangen.net.xml"/>
        <osm-files value="erlangen.osm"/>
        <type-file value="typemap.xml"/>
    </input>

    <output>
        <output-file value="erlangen.poly.xml"/>
    </output>

    <processing>
        <poi-layer-offset value="5"/>
    </processing>

</configuration>
-->

<additional xmlns:xsi="http://www.w3.org/2001/XMLSchema-instance" xsi:noNamespaceSchemaLocation="http://sumo.dlr.de/xsd/additional_file.xsd">
    <location netOffset="-776679.30,24406.05" convBoundary="0.00,0.00,4612.83,7436.51" origBoundary="-78.514320,-0.220600,-78.472910,-0.153380" projParameter="+proj=utm +zone=17 +ellps=WGS84 +datum=WGS84 +units=m +no_defs"/>

    <poly id="106941319" type="tourism" color="207,245,201" fill="1" layer="-10.00" shape="1506.206037,1084.336619 1569.021937,1066.126900 1469.874603,1021.291010 1482.965305,1042.741220 1501.294141,1084.337408 1506.206037,1084.336619"/>
    <poly id="106941332" type="unknown" color="51,128,255" fill="0" layer="-1.00" shape="1362.640356,1041.089969 1426.380108,1019.527837"/>
    <poly id="106941334" type="unknown" color="51,128,255" fill="0" layer="-1.00" shape="1469.505878,1014.033349 1568.697214,1055.439510 1600.742024,1058.653866"/>
    <poly id="107938320" type="unknown" color="51,128,255" fill="0" layer="-1.00" shape="2087.152900,1326.492796 2083.098985,1328.783616 2066.716270,1338.068622 2051.981746,1345.760198"/>
    <poly id="107938326" type="building" color="255,230,230" fill="1" layer="2.00" shape="1436.357996,1997.171872 1444.754861,1989.049897 1452.471155,1973.493290 1440.206972,1966.060448 1424.547483,1970.344478 1428.894752,1992.470995 1436.357996,1997.171872"/>
    <poly id="107938331" type="unknown" color="51,128,255" fill="0" layer="-1.00" shape="2087.049842,1308.824172 2098.601580,1318.193239"/>
    <poly id="107938333" type="unknown" color="51,128,255" fill="0" layer="-1.00" shape="2087.152900,1326.492796 2075.679031,1316.493090"/>
    <poly id="107938335" type="unknown" color="51,128,255" fill="0" layer="-1.00" shape="2098.601580,1318.193239 2093.344929,1321.634870 2087.152900,1326.492796"/>
    <poly id="107938353" type="unknown" color="51,128,255" fill="0" layer="-1.00" shape="1929.183083,1410.712190 1923.333636,1398.520995"/>
    <poly id="107938369" type="unknown" color="51,128,255" fill="0" layer="-1.00" shape="1915.463923,2216.434396 1920.430485,2209.629502 1927.746572,2198.774959"/>
    <poly id="107938376" type="unknown" color="51,128,255" fill="0" layer="-1.00" shape="2225.021389,1190.896804 2243.930724,1170.735791 2247.082063,1166.022168 2248.885567,1160.567496 2250.031814,1154.449109 2250.587474,1146.682333 2250.485258,1134.401690"/>
    <poly id="107938380" type="unknown" color="51,128,255" fill="0" layer="-1.00" shape="2098.601580,1318.193239 2115.957216,1333.402989 2160.537056,1364.916230 2212.515676,1415.601627"/>
    <poly id="107938396" type="unknown" color="51,128,255" fill="0" layer="-1.00" shape="2075.679031,1316.493090 2080.646104,1313.140014 2087.049842,1308.824172"/>
    <poly id="107938398" type="unknown" color="51,128,255" fill="0" layer="-1.00" shape="1593.749294,1990.033686 1699.655468,1950.874262"/>
    <poly id="107938400" type="building" color="255,230,230" fill="1" layer="2.00" shape="3010.433769,1565.919214 3040.276011,1584.811325 3065.308536,1545.796694 3035.466283,1526.904589 3010.433769,1565.919214"/>
    <poly id="107938400#1" type="shop" color="237,199,255" fill="1" layer="2.00" shape="3010.433769,1565.919214 3040.276011,1584.811325 3065.308536,1545.796694 3035.466283,1526.904589 3010.433769,1565.919214"/>
    <poly id="107938403" type="amenity" color="237,199,199" fill="1" layer="2.00" shape="1801.928897,1972.144845 1811.210160,1992.931959 1794.715712,2000.059480 1785.401079,1979.548964 1801.928897,1972.144845"/>
    <poly id="107938403#1" type="building" color="255,230,230" fill="1" layer="2.00" shape="1801.928897,1972.144845 1811.210160,1992.931959 1794.715712,2000.059480 1785.401079,1979.548964 1801.928897,1972.144845"/>
    <poly id="107938436" type="unknown" color="51,128,255" fill="0" layer="-1.00" shape="1461.381422,1972.175346 1454.296921,1967.795256 1443.837256,1961.324668 1415.659220,1969.892243"/>
    <poly id="107938441" type="unknown" color="51,128,255" fill="0" layer="-1.00" shape="2263.255386,1101.286109 2277.556298,1098.385129 2285.330780,1098.726851 2293.317278,1101.502545 2299.243440,1105.650464 2308.166064,1111.656597"/>
    <poly id="107938451" type="unknown" color="51,128,255" fill="0" layer="-1.00" shape="2075.679031,1316.493090 2041.391152,1286.936502"/>
    <poly id="121072321" type="unknown" color="51,128,255" fill="0" layer="-1.00" shape="1226.560269,1991.583924 1215.432787,1988.023168 1100.037058,1953.246032"/>
    <poly id="128476371" type="building" color="255,230,230" fill="1" layer="2.00" shape="1243.702494,2434.113430 1236.683608,2421.557328 1227.603840,2406.766695 1255.825506,2392.125307 1271.244658,2418.907904 1243.702494,2434.113430"/>
    <poly id="128476488" type="unknown" color="51,128,255" fill="0" layer="-1.00" shape="1761.690135,2430.030034 1757.769900,2432.553133 1677.816420,2478.999225"/>
    <poly id="128476489" type="unknown" color="51,128,255" fill="0" layer="-1.00" shape="1219.455182,2362.358725 1208.362445,2367.527097 1159.835600,2378.929934 1157.363036,2379.505614 1098.553767,2377.666905 1025.198404,2377.058454 1022.848271,2377.036683 992.474899,2377.760413"/>
    <poly id="128476620" type="unknown" color="51,128,255" fill="0" layer="-1.00" shape="1227.320407,1650.803444 1221.650789,1648.624806 1203.650975,1644.180066 1067.419364,1631.588922 1057.261526,1632.033055 1046.212992,1634.701104 1037.024713,1638.641172 963.820340,1677.286575 942.481237,1686.240326 923.291199,1691.476384 887.940009,1697.655364 878.049642,1699.039851"/>
    <poly id="136541082" type="building" color="255,230,230" fill="1" layer="2.00" shape="2883.475117,2392.165746 2879.967799,2400.143212 2865.197570,2393.739576 2856.394755,2369.865445 2867.788500,2365.714819 2875.919878,2368.944181 2876.654718,2367.096430 2885.787465,2363.311250 2887.124535,2366.497393 2890.955835,2364.914699 2895.824999,2376.519784 2891.759812,2378.202087 2886.727196,2390.350803 2884.588528,2389.477096 2883.475117,2392.165746"/>
    <poly id="136541093" type="building" color="255,230,230" fill="1" layer="2.00" shape="3223.787687,2363.137963 3207.955818,2334.020642 3205.315314,2329.153005 3213.534651,2324.748383 3216.598526,2330.390417 3219.817210,2328.663983 3216.820184,2323.154703 3224.660852,2318.949286 3243.088666,2352.856807 3234.780227,2357.305697 3231.794342,2351.807478 3229.388683,2353.102303 3232.352283,2358.545206 3223.787687,2363.137963"/>
    <poly id="136541101" type="building" color="255,230,230" fill="1" layer="2.00" shape="3236.420197,2301.809764 3263.081212,2349.092083 3278.851606,2340.316130 3252.201722,2293.033807 3236.420197,2301.809764"/>
    <poly id="136541108" type="building" color="255,230,230" fill="1" layer="2.00" shape="2415.140492,1695.104138 2443.568466,1716.684901 2454.503911,1702.455304 2426.075935,1680.885605 2415.140492,1695.104138"/>
    <poly id="137487092" type="leisure" color="207,245,201" fill="1" layer="0.00" shape="1045.103792,1101.138714 1028.373707,1027.159341 1033.974119,1014.545978 1044.052825,1006.899433 1059.088458,1002.316698 1075.339009,1003.132788 1083.058160,1006.118709 1092.125964,1014.990233 1108.321152,1087.188487 1103.912555,1100.122507 1096.117424,1109.538853 1086.606039,1112.748812 1075.579874,1115.925821 1060.743699,1114.135899 1052.712605,1110.652162 1045.103792,1101.138714"/>
    <poly id="138055545" type="unknown" color="51,128,255" fill="0" layer="-1.00" shape="2875.287726,1880.902129 2811.267496,1966.113659 2745.063871,2049.499940"/>
    <poly id="143603184" type="unknown" color="51,128,255" fill="0" layer="-1.00" shape="3273.828900,1983.135265 3268.714740,1972.116580"/>
    <poly id="143605458" type="amenity" color="237,199,199" fill="1" layer="2.00" shape="2823.295998,2177.539116 2839.790588,2170.533256 2858.698868,2214.508568 2842.204271,2221.503361 2823.295998,2177.539116"/>
    <poly id="143605458#1" type="building" color="255,230,230" fill="1" layer="2.00" shape="2823.295998,2177.539116 2839.790588,2170.533256 2858.698868,2214.508568 2842.204271,2221.503361 2823.295998,2177.539116"/>
    <poly id="149787545" type="unknown" color="51,128,255" fill="0" layer="-1.00" shape="1591.102237,2526.110096 1677.816420,2478.999225"/>
    <poly id="149813030" type="unknown" color="51,128,255" fill="0" layer="-1.00" shape="1387.738405,1913.140332 1390.936563,1923.008560"/>
    <poly id="150166749" type="unknown" color="51,128,255" fill="0" layer="-1.00" shape="1827.081855,1073.829937 1996.483828,1227.244275 2011.444497,1240.794840 2018.919236,1247.398639 2063.166121,1286.457293 2087.049842,1308.824172"/>
    <poly id="150166750" type="unknown" color="51,128,255" fill="0" layer="-1.00" shape="2009.103101,1365.581996 2016.846193,1378.757560"/>
    <poly id="150166755" type="unknown" color="51,128,255" fill="0" layer="-1.00" shape="1755.765106,1008.156697 1770.268189,1016.020593 1789.072547,1036.075908 1793.595538,1041.784009"/>
    <poly id="150166757" type="unknown" color="51,128,255" fill="0" layer="-1.00" shape="2278.219614,1485.967135 2154.957378,1368.247276 2093.344929,1321.634870 2080.646104,1313.140014"/>
    <poly id="150166759" type="unknown" color="51,128,255" fill="0" layer="-1.00" shape="2712.500378,1792.340508 2674.238206,1776.270950 2660.659621,1768.971041 2612.526946,1739.549172"/>
    <poly id="150166760" type="unknown" color="51,128,255" fill="0" layer="-1.00" shape="1802.596630,1051.098130 1827.081855,1073.829937"/>
    <poly id="150166761" type="unknown" color="51,128,255" fill="0" layer="-1.00" shape="2278.219614,1485.967135 2300.943863,1501.286709 2318.043397,1516.916960 2349.680966,1549.914870"/>
    <poly id="150166762" type="unknown" color="51,128,255" fill="0" layer="-1.00" shape="2612.526946,1739.549172 2637.221863,1749.624321 2665.749136,1764.920934 2712.500378,1792.340508"/>
    <poly id="150166763" type="unknown" color="51,128,255" fill="0" layer="-1.00" shape="2080.646104,1313.140014 2034.171968,1276.427195 2016.559990,1260.155392 1953.531167,1201.893291 1801.184095,1063.555996"/>
    <poly id="150166765" type="unknown" color="51,128,255" fill="0" layer="-1.00" shape="2349.680966,1549.914870 2319.849180,1525.789731 2303.429289,1511.520203 2278.219614,1485.967135"/>
    <poly id="150166767" type="unknown" color="51,128,255" fill="0" layer="-1.00" shape="2349.680966,1549.914870 2421.521559,1617.237026 2491.165155,1666.813454"/>
    <poly id="150166769" type="unknown" color="51,128,255" fill="0" layer="-1.00" shape="1128.813332,458.973470 1171.341819,479.566843 1308.315926,536.422191 1533.543448,631.543231 1552.568235,637.248936 1567.861638,642.180800 1598.359209,651.225840 1642.480324,670.347603 1694.922199,693.074756 1723.593331,703.248599 1743.666158,715.293601 1803.662211,753.397987 1814.289810,764.714341 1820.706609,772.369324 1867.840367,824.039851 1927.541562,898.156482 1928.410502,899.185258 1933.334490,904.981804 1939.350528,913.953436 1938.472046,922.782358 1934.630114,927.219497 1806.616009,1041.914675 1802.596630,1051.098130 1804.480603,1061.243169 1975.954720,1217.589002 2018.240655,1252.687167 2036.242463,1268.925716 2080.646104,1313.140014"/>
    <poly id="150166770" type="unknown" color="51,128,255" fill="0" layer="-1.00" shape="2712.500378,1792.340508 2766.836765,1819.935933 2830.473883,1849.598838 2928.776387,1900.332728 2988.972252,1932.518757 3008.098447,1944.685868"/>
    <poly id="150166771" type="unknown" color="51,128,255" fill="0" layer="-1.00" shape="1629.590489,1063.616787 1698.547930,1072.755308 1717.760884,1071.059485 1759.750553,1064.923488 1777.224778,1055.815316"/>
    <poly id="150172849" type="unknown" color="51,128,255" fill="0" layer="-1.00" shape="3101.440492,2041.135946 3110.497061,2048.879149"/>
    <poly id="150172856" type="unknown" color="51,128,255" fill="0" layer="-1.00" shape="3008.098447,1944.685868 3033.630231,1964.043403 3048.825546,1982.041711 3069.768652,2003.092718 3101.440492,2041.135946"/>
    <poly id="150172860" type="unknown" color="51,128,255" fill="0" layer="-1.00" shape="3101.440492,2041.135946 3071.585563,2012.009795 3058.963885,1998.580397 3033.764451,1967.661218 3008.098447,1944.685868"/>
    <poly id="150172867" type="unknown" color="51,128,255" fill="0" layer="-1.00" shape="3280.082842,2306.936651 3295.289913,2329.050732 3301.685238,2341.994327 3310.665167,2358.433668 3318.966082,2377.616923"/>
    <poly id="150172873" type="unknown" color="51,128,255" fill="0" layer="-1.00" shape="3318.966082,2377.616923 3305.029618,2361.034508 3296.517597,2345.258919 3289.754647,2331.894959 3280.082842,2306.936651"/>
    <poly id="150172877" type="unknown" color="51,128,255" fill="0" layer="-1.00" shape="3463.070469,2656.899282 3437.735150,2610.877912 3436.977543,2609.517185 3432.197897,2600.655846 3372.022040,2480.512695 3342.909462,2425.563520 3337.271849,2414.633403 3318.966082,2377.616923"/>
    <poly id="150314426" type="unknown" color="51,128,255" fill="0" layer="-1.00" shape="2491.165155,1666.813454 2516.985823,1682.066208 2612.526946,1739.549172"/>
    <poly id="150316488" type="unknown" color="51,128,255" fill="0" layer="-1.00" shape="2678.142776,1392.105837 2652.377454,1375.038667"/>
    <poly id="150316490" type="unknown" color="51,128,255" fill="0" layer="-1.00" shape="2652.377454,1375.038667 2634.454236,1363.159121 2609.435342,1347.131828 2592.369959,1336.458094"/>
    <poly id="150316498" type="unknown" color="51,128,255" fill="0" layer="-1.00" shape="1927.746572,2198.774959 1942.169387,2191.857979 2077.476628,2127.137057 2169.893626,2079.737231 2176.754241,2076.605161 2217.004433,2056.706506 2223.152189,2053.452843 2263.508429,1998.991290"/>
    <poly id="150615002" type="boundary.administrative" color="128,0,51" fill="0" layer="-12.00" shape="1663.159414,1545.310008 1667.393786,1557.335488 1670.395832,1594.818536 1674.289424,1635.543084"/>
    <poly id="150634581" type="boundary.administrative" color="128,0,51" fill="0" layer="-12.00" shape="3104.559844,2045.339677 3255.807450,1984.443586 3268.714740,1972.116580 3352.413659,1940.682541 3496.912232,1883.272351 3704.526005,2005.195831 3790.610773,2058.321758 3817.217965,2188.516159 3820.894514,2194.478967"/>
    <poly id="150636250" type="boundary.administrative" color="128,0,51" fill="0" layer="-12.00" shape="2288.157835,1155.361272 2271.178614,1126.200194 2087.596554,1314.743135 1826.775452,1457.195651 1781.770978,1486.543494 1663.159414,1545.310008"/>
    <poly id="150636253" type="boundary.administrative" color="128,0,51" fill="0" layer="-12.00" shape="2146.813927,2730.283356 2778.813812,2567.618736 2817.695709,2557.401067 3309.383787,2428.279243 3338.520234,2420.552314 3233.132510,2216.774422 3195.519139,2147.134028 3104.559844,2045.339677"/>
    <poly id="160695132" type="unknown" color="51,128,255" fill="0" layer="-1.00" shape="2597.903850,2251.423851 2564.677159,2168.982387"/>
    <poly id="160695140" type="unknown" color="51,128,255" fill="0" layer="-1.00" shape="1845.274688,2019.899816 1883.586547,1998.684926 1913.879677,1982.095862 1990.325212,1939.666055 2053.896837,1908.500986 2058.819720,1907.393858 2063.397430,1906.983793 2067.618826,1907.259728 2071.840277,1907.889701 2076.462720,1908.641311 2081.085217,1909.735894 2085.874894,1911.527461 2090.664679,1914.016038 2178.046617,1863.098614"/>
    <poly id="160695144" type="building" color="255,230,230" fill="1" layer="2.00" shape="1983.597567,2010.264163 2002.129926,2000.624872 2008.079579,2012.860336 1989.257715,2023.074981 1983.597567,2010.264163"/>
    <poly id="160695148" type="unknown" color="51,128,255" fill="0" layer="-1.00" shape="1830.720475,1470.670522 1887.628513,1562.788366"/>
    <poly id="160695432" type="unknown" color="51,128,255" fill="0" layer="-1.00" shape="3113.400950,1671.793824 3008.869366,1604.432254 2973.413175,1583.627007"/>
    <poly id="164103044" type="parking" color="184,184,179" fill="1" layer="-2.00" shape="1377.026175,2366.229210 1363.709983,2325.517221 1369.846472,2321.599777 1408.454455,2343.831730 1407.653276,2348.854723 1406.395871,2356.754319 1377.026175,2366.229210"/>
    <poly id="173516435" type="unknown" color="51,128,255" fill="0" layer="-1.00" shape="3388.397784,2133.495871 3400.252665,2158.088746 3449.903981,2283.632510 3470.425841,2317.639331"/>
    <poly id="173677133" type="unknown" color="51,128,255" fill="0" layer="-1.00" shape="2124.134972,1987.097298 2090.664679,1914.016038"/>
    <poly id="180332914" type="unknown" color="51,128,255" fill="0" layer="-1.00" shape="2087.382294,1438.346208 2096.327616,1447.184643"/>
    <poly id="180332916" type="unknown" color="51,128,255" fill="0" layer="-1.00" shape="2089.715996,1475.176712 2120.329962,1445.056620"/>
    <poly id="180332917" type="unknown" color="51,128,255" fill="0" layer="-1.00" shape="2109.847263,1434.249099 2096.327616,1447.184643 2080.736622,1462.300051"/>
    <poly id="180332948" type="parking" color="184,184,179" fill="1" layer="-2.00" shape="2092.882281,1494.493335 2132.004071,1453.529525 2109.010575,1425.874051 2070.879292,1461.781620 2092.882281,1494.493335"/>
    <poly id="180333679" type="unknown" color="51,128,255" fill="0" layer="-1.00" shape="2126.699533,1295.851258 2126.121760,1304.691204 2132.092748,1310.631432 2142.472333,1303.360960 2152.339539,1295.935678 2156.894919,1295.193687 2162.866002,1301.720288 2164.648598,1304.817826 2164.359770,1309.608433 2155.239141,1319.058244 2146.764167,1326.273093 2138.845943,1332.503189 2134.880828,1332.891048 2131.505735,1331.397993 2127.618053,1328.433554 2126.046891,1324.130045 2127.538456,1318.199693 2126.947188,1312.258608 2120.965064,1306.329446 2112.077148,1308.311256"/>
    <poly id="180333680" type="amenity" color="237,199,199" fill="1" layer="2.00" shape="2137.642242,1327.591120 2161.429921,1306.356186 2154.957523,1299.210100 2131.180984,1320.445033 2137.642242,1327.591120"/>
    <poly id="180333680#1" type="building" color="255,230,230" fill="1" layer="2.00" shape="2137.642242,1327.591120 2161.429921,1306.356186 2154.957523,1299.210100 2131.180984,1320.445033 2137.642242,1327.591120"/>
    <poly id="180333871" type="unknown" color="51,128,255" fill="0" layer="-1.00" shape="2181.339757,1343.891983 2173.742388,1336.624373 2155.239141,1319.058244"/>
    <poly id="180333873" type="unknown" color="51,128,255" fill="0" layer="-1.00" shape="2173.742388,1336.624373 2164.688361,1344.669089 2146.764167,1326.273093"/>
    <poly id="186171248" type="unknown" color="51,128,255" fill="0" layer="-1.00" shape="2243.444638,1687.408634 2276.517289,1709.652465"/>
    <poly id="188633891" type="building" color="255,230,230" fill="1" layer="2.00" shape="2553.833415,1556.653605 2537.792663,1545.337994 2561.600805,1512.032553 2577.641562,1523.348161 2565.737489,1540.000884 2553.833415,1556.653605"/>
    <poly id="188633895" type="amenity" color="237,199,199" fill="1" layer="2.00" shape="2799.445860,2156.322608 2796.415159,2149.098480 2782.899365,2115.566492 2769.411845,2120.945529 2785.913799,2161.801222 2799.445860,2156.322608"/>
    <poly id="188633895#1" type="building" color="255,230,230" fill="1" layer="2.00" shape="2799.445860,2156.322608 2796.415159,2149.098480 2782.899365,2115.566492 2769.411845,2120.945529 2785.913799,2161.801222 2799.445860,2156.322608"/>
    <poly id="188633897" type="building" color="255,230,230" fill="1" layer="2.00" shape="2732.610060,2185.474664 2714.132914,2192.679967 2706.366578,2173.032043 2724.843722,2165.826738 2732.610060,2185.474664"/>
    <poly id="188633899" type="building" color="255,230,230" fill="1" layer="2.00" shape="2660.355017,1886.854689 2674.290376,1896.455801 2667.865078,1905.661791 2653.918581,1896.060679 2660.355017,1886.854689"/>
    <poly id="188633901" type="building" color="255,230,230" fill="1" layer="2.00" shape="2562.398606,2127.604571 2552.164972,2142.862962 2570.945587,2153.602907 2584.878749,2149.075717 2580.611001,2137.205043 2562.398606,2127.604571"/>
    <poly id="188633913" type="building" color="255,230,230" fill="1" layer="2.00" shape="2734.254630,2160.227061 2742.076617,2179.598387 2752.935687,2175.270813 2745.113700,2155.910550 2734.254630,2160.227061"/>
    <poly id="188633915" type="building" color="255,230,230" fill="1" layer="2.00" shape="2610.219959,2161.142298 2583.033342,2172.033142 2592.448633,2195.022029 2597.382580,2193.295337 2619.501586,2184.064827 2610.219959,2161.142298"/>
    <poly id="188633915#1" type="tourism" color="207,245,201" fill="1" layer="2.00" shape="2610.219959,2161.142298 2583.033342,2172.033142 2592.448633,2195.022029 2597.382580,2193.295337 2619.501586,2184.064827 2610.219959,2161.142298"/>
    <poly id="188633917" type="parking" color="184,184,179" fill="1" layer="-2.00" shape="2619.069601,2345.307042 2610.521179,2309.683281 2582.521402,2320.186992 2571.556318,2286.687839 2502.258429,2311.746595 2512.934773,2350.921446 2492.296757,2357.584924 2497.981183,2383.583696 2529.935708,2377.726147 2619.069601,2345.307042"/>
    <poly id="191860474" type="building" color="255,230,230" fill="1" layer="2.00" shape="2693.527374,1200.347496 2721.966687,1153.045643 2704.132758,1142.460558 2692.953017,1161.060421 2690.145929,1159.401319 2683.219832,1170.908670 2688.588945,1174.094150 2678.255475,1191.277720 2693.527374,1200.347496"/>
    <poly id="191861327" type="building" color="255,230,230" fill="1" layer="2.00" shape="2664.750797,1020.677806 2658.600638,1009.017673 2661.016510,1002.146731 2654.233256,1001.495071 2646.601879,990.819848 2643.493625,986.472322 2638.036339,989.062108 2627.856835,993.920714 2622.588227,992.361587 2611.228443,999.477375 2636.930493,1038.351012 2658.792333,1023.522137 2664.750797,1020.677806"/>
    <poly id="191861349" type="building" color="255,230,230" fill="1" layer="2.00" shape="2709.821420,1055.067537 2713.943202,1059.127247 2716.203811,1056.394150 2729.315596,1069.690592 2716.386261,1082.659327 2696.646189,1062.714675 2704.052778,1060.854779 2709.821420,1055.067537"/>
    <poly id="191861361" type="building" color="255,230,230" fill="1" layer="2.00" shape="2834.975251,1156.368705 2886.949498,1177.790742 2891.069045,1167.932318 2878.103329,1162.590633 2881.109484,1155.398741 2860.602712,1146.949370 2857.963975,1153.256106 2839.462213,1145.625128 2834.975251,1156.368705"/>
    <poly id="191861466" type="building" color="255,230,230" fill="1" layer="2.00" shape="2039.619568,1564.036739 2044.654467,1566.978874 2050.379648,1568.128591 2056.160220,1567.375352 2061.383598,1564.796701 2065.481780,1560.669316 2068.009313,1555.446878 2068.698968,1549.682611 2067.461742,1544.018221 2064.442526,1539.062185 2059.964411,1535.345508 2054.517537,1533.277466 2048.681123,1533.068178 2043.101187,1534.761795 2038.379155,1538.159078 2035.016188,1542.905911 2033.390899,1548.471178 2033.670265,1554.257418 2035.820773,1559.645072 2039.619568,1564.036739"/>
    <poly id="191861466#1" type="shop" color="237,199,255" fill="1" layer="2.00" shape="2039.619568,1564.036739 2044.654467,1566.978874 2050.379648,1568.128591 2056.160220,1567.375352 2061.383598,1564.796701 2065.481780,1560.669316 2068.009313,1555.446878 2068.698968,1549.682611 2067.461742,1544.018221 2064.442526,1539.062185 2059.964411,1535.345508 2054.517537,1533.277466 2048.681123,1533.068178 2043.101187,1534.761795 2038.379155,1538.159078 2035.016188,1542.905911 2033.390899,1548.471178 2033.670265,1554.257418 2035.820773,1559.645072 2039.619568,1564.036739"/>
    <poly id="191862463" type="leisure" color="207,245,201" fill="1" layer="0.00" shape="2732.375709,1190.140536 2747.614194,1199.177128 2763.259163,1173.152803 2748.020675,1164.116212 2732.375709,1190.140536"/>
    <poly id="191862465" type="leisure" color="207,245,201" fill="1" layer="0.00" shape="2736.961624,1033.145976 2731.180028,1027.703573 2743.229497,1015.066885 2749.011092,1020.498224 2736.961624,1033.145976"/>
    <poly id="191862465#1" type="sport" color="79,230,125" fill="1" layer="2.00" shape="2736.961624,1033.145976 2731.180028,1027.703573 2743.229497,1015.066885 2749.011092,1020.498224 2736.961624,1033.145976"/>
    <poly id="191862466" type="leisure" color="207,245,201" fill="1" layer="0.00" shape="2759.871521,1024.833436 2777.260955,1041.713826 2767.260509,1051.882980 2749.871077,1035.002590 2759.871521,1024.833436"/>
    <poly id="191862466#1" type="sport" color="79,230,125" fill="1" layer="2.00" shape="2759.871521,1024.833436 2777.260955,1041.713826 2767.260509,1051.882980 2749.871077,1035.002590 2759.871521,1024.833436"/>
    <poly id="191862468" type="leisure" color="207,245,201" fill="1" layer="0.00" shape="2751.826129,1071.346513 2744.685487,1064.731576 2758.204914,1050.324462 2765.345556,1056.928335 2751.826129,1071.346513"/>
    <poly id="191862468#1" type="sport" color="79,230,125" fill="1" layer="2.00" shape="2751.826129,1071.346513 2744.685487,1064.731576 2758.204914,1050.324462 2765.345556,1056.928335 2751.826129,1071.346513"/>
    <poly id="191862469" type="building" color="255,230,230" fill="1" layer="2.00" shape="2725.363982,1153.974447 2693.238466,1204.618127 2709.602095,1214.860480 2718.220869,1201.283947 2729.549537,1208.373957 2716.309586,1229.242205 2728.874715,1237.106478 2748.907242,1205.527481 2735.295014,1196.999557 2734.337376,1198.526501 2724.479094,1192.354542 2747.495885,1156.061927 2740.466984,1151.659706 2735.122012,1160.091101 2725.363982,1153.974447"/>
    <poly id="191862470" type="leisure" color="207,245,201" fill="1" layer="0.00" shape="2719.164791,1045.396361 2729.666259,1034.032250 2748.180643,1050.901393 2737.679174,1062.276567 2719.164791,1045.396361"/>
    <poly id="191862470#1" type="sport" color="79,230,125" fill="1" layer="2.00" shape="2719.164791,1045.396361 2729.666259,1034.032250 2748.180643,1050.901393 2737.679174,1062.276567 2719.164791,1045.396361"/>
    <poly id="191862472" type="leisure" color="207,245,201" fill="1" layer="0.00" shape="2756.488817,1045.268630 2750.631107,1051.299290 2737.987308,1039.153396 2743.856157,1033.133797 2756.488817,1045.268630"/>
    <poly id="191862472#1" type="sport" color="79,230,125" fill="1" layer="2.00" shape="2756.488817,1045.268630 2750.631107,1051.299290 2737.987308,1039.153396 2743.856157,1033.133797 2756.488817,1045.268630"/>
    <poly id="191862474" type="building" color="255,230,230" fill="1" layer="2.00" shape="2915.648779,1153.866392 2927.600850,1158.754628 2932.199138,1147.645924 2951.046208,1155.343233 2967.078981,1116.639788 2951.874337,1110.424434 2956.606232,1099.016985 2929.204460,1087.824931 2937.254239,1068.395758 2883.943489,1047.670983 2875.325576,1066.535993 2850.352051,1056.007381 2844.395149,1068.576709 2829.803246,1063.157851 2813.580755,1099.405153 2842.341454,1111.161232 2846.828400,1100.340207 2830.621264,1093.704599 2837.078902,1078.136929 2853.486539,1084.849949 2858.797390,1072.048387 2882.534445,1081.758488 2890.194536,1063.269798 2920.013453,1075.468252 2909.948445,1099.765779 2920.274234,1103.990450 2922.757086,1098.004584 2938.251340,1104.341590 2932.840281,1117.397640 2949.381594,1124.154901 2941.999838,1141.968663 2923.676298,1134.481483 2915.648779,1153.866392"/>
    <poly id="191862475" type="amenity" color="237,199,199" fill="1" layer="2.00" shape="2828.866793,1057.924872 2831.171301,1051.131387 2820.021379,1047.448976 2787.253430,1051.138482 2735.424947,1104.584498 2730.701631,1100.071272 2727.985336,1108.889474 2740.027264,1118.535075 2750.944133,1127.539165 2758.906401,1118.023105 2763.193829,1113.220770 2758.994136,1109.515108 2775.742951,1090.814761 2769.393279,1085.195427 2789.538632,1062.743933 2828.866793,1057.924872"/>
    <poly id="191862948" type="building" color="255,230,230" fill="1" layer="2.00" shape="2737.652831,1244.772211 2758.583575,1257.868275 2788.158420,1276.373106 2798.013229,1260.838096 2747.507634,1229.237205 2737.652831,1244.772211"/>
    <poly id="199287418" type="unknown" color="51,128,255" fill="0" layer="-1.00" shape="3706.270347,1551.824450 3663.083548,1528.044204 3633.919713,1503.586853 3604.398753,1474.715128 3594.005285,1465.412159"/>
    <poly id="199287420" type="unknown" color="51,128,255" fill="0" layer="-1.00" shape="3669.587118,1661.372613 3677.275556,1610.124034 3679.146097,1605.786741 3689.812632,1581.046470 3710.804798,1559.258584"/>
    <poly id="207236608" type="unknown" color="51,128,255" fill="0" layer="-1.00" shape="1670.181349,1647.558812 1617.144484,1665.257838"/>
    <poly id="219886402" type="unknown" color="51,128,255" fill="0" layer="-1.00" shape="1077.086572,1913.885402 1090.354185,1928.011527 1107.720436,1941.041729 1121.142170,1943.429387"/>
    <poly id="220063159" type="unknown" color="51,128,255" fill="0" layer="-1.00" shape="1339.163725,1760.005671 1437.796832,1723.148526"/>
    <poly id="220063160" type="unknown" color="51,128,255" fill="0" layer="-1.00" shape="1339.163725,1760.005671 1339.197156,1760.116302 1355.823583,1814.159342"/>
    <poly id="228988129" type="building" color="255,230,230" fill="1" layer="2.00" shape="2752.728750,1212.452742 2762.650282,1196.309217 2781.921217,1207.989388 2784.137139,1204.393331 2819.905339,1226.083507 2806.632078,1247.670914 2791.538368,1238.523653 2788.509570,1243.447484 2771.666997,1233.238390 2775.831591,1226.455676 2752.728750,1212.452742"/>